pglib_opf_case4917_goc/dapi/pglib_opf_case4917_goc_10regions_dapi.m
% -------------------------------------------------------------------------
% Partitioned MATPOWER Case File
% Copyright (c) 2025 Milad Hasanzadeh
% Generated on: 2026-06-14
% This file contains partitioned data for 10 regions


% -------------------- mpc_regionR1 --------------------

mpc_regionR1.version = '2';
mpc_regionR1.baseMVA = 100.0000;
mpc_regionR1.bus = [
%	bus_i       type        Pd          Qd          Gs          Bs          area        Vm          Va          baseKV      zone        Vmax        Vmin        
	 1	 1	 0	 0	 0	 0	 1	 0.9975	 0	 1	 4	 1.05	 0.945;
	 2	 1	 4.12	 0.37	 0	 0	 1	 0.9975	 0	 138	 4	 1.05	 0.945;
	 3	 1	 0	 0	 0	 0	 1	 0.9975	 0	 345	 4	 1.05	 0.945;
	 4	 1	 31.87	 1.3	 0	 0	 1	 0.9975	 0	 69	 4	 1.05	 0.945;
	 5	 1	-27.78	-27.22	 0	-6.628276038	 1	 0.9975	 0	 69	 4	 1.05	 0.945;
	 6	 1	 13.77	 2.85	 0	 0	 1	 0.9975	 0	 33	 4	 1.05	 0.945;
	 7	 1	 37.1	 7.56	 0	 0	 1	 0.9975	 0	 69	 4	 1.05	 0.945;
	 8	 1	 415.03	 8.99	 0	 0	 1	 0.9975	 0	 345	 4	 1.05	 0.945;
	 9	 1	 0	 0	 0	 0	 1	 0.9975	 0	 13.8	 4	 1.05	 0.945;
	 10	 1	-1.07	-2.7	 0	 0	 1	 0.9975	 0	 138	 4	 1.05	 0.945;
	 11	 1	 0	 0	 0	 0	 1	 0.9975	 0	 69	 4	 1.05	 0.945;
	 12	 1	 219.5	 41.98	 0	 0	 1	 0.9975	 0	 345	 4	 1.05	 0.945;
	 13	 2	 0	 0	 0	 0	 1	 0.9975	 0	 765	 4	 1.05	 0.945;
	 14	 1	 4.29	 2.5	 0	 0	 1	 0.9975	 0	 138	 4	 1.05	 0.945;
	 15	 1	 0	 0	 0	 0	 1	 0.9975	 0	 13.8	 4	 1.05	 0.945;
	 16	 1	 52.09	-9.18	 0	 0	 1	 0.9975	 0	 345	 4	 1.05	 0.945;
	 17	 1	 0	 0	 0	 0	 1	 0.9975	 0	 22.8	 4	 1.05	 0.945;
	 18	 1	 30.69	-9.46	 0	-9.372	 1	 0.9975	 0	 69	 4	 1.05	 0.945;
	 19	 1	 0	 0	 0	 0	 1	 0.9975	 0	 13.8	 4	 1.05	 0.945;
	 20	 1	 9.71	 0.73	 0	 0	 1	 0.9975	 0	 138	 4	 1.05	 0.945;
	 21	 1	 152.59	 15.3	 0	 0	 1	 0.9975	 0	 345	 4	 1.05	 0.945;
	 22	 2	 0	 0	 0	 0	 1	 0.9975	 0	 22.8	 4	 1.05	 0.945;
	 23	 2	 0	 0	 0	 0	 1	 0.9975	 0	 345	 4	 1.05	 0.945;
	 24	 1	 42.59	 21.51	 0	 0	 1	 0.9975	 0	 69	 4	 1.05	 0.945;
	 25	 1	 20.58	 5.31	 0	 0	 1	 0.9975	 0	 4.16	 4	 1.05	 0.945;
	 26	 1	 0	 0	 0	 0	 1	 0.9975	 0	 13.8	 4	 1.05	 0.945;
	 27	 1	 440.04	-28.3	 0	 0	 1	 0.9975	 0	 345	 4	 1.05	 0.945;
	 28	 1	 25.46	 35.41	 0	 0	 1	 0.9975	 0	 23.4	 4	 1.05	 0.945;
	 29	 1	 0	 0	 0	 0	 1	 0.9975	 0	 138	 4	 1.05	 0.945;
	 30	 1	 27.78	-2.75	 0	 0	 1	 0.9975	 0	 69	 4	 1.05	 0.945;
	 31	 1	 0	 0	 0	 0	 1	 0.9975	 0	 69	 4	 1.05	 0.945;
	 32	 1	 241.97	 22.34	 0	 0	 1	 0.9975	 0	 345	 4	 1.05	 0.945;
	 33	 1	 23.95	-0.07	 0	-0.079	 1	 0.9975	 0	 1	 4	 1.05	 0.945;
	 34	 1	 0	 0	 0	 0	 1	 0.9975	 0	 69	 4	 1.05	 0.945;
	 35	 1	 0	 0	 0	 0	 1	 0.9975	 0	 13.8	 4	 1.05	 0.945;
	 36	 2	 0	 0	 0	-258.636	 1	 0.9975	 0	 345	 4	 1.05	 0.945;
	 37	 2	 35.34	 9.02	 0	 0	 1	 0.9975	 0	 18	 4	 1.05	 0.945;
	 38	 1	 0	 0	 0	 0	 1	 0.9975	 0	 13.8	 4	 1.05	 0.945;
	 39	 1	 0	 0	 0	 0	 1	 0.9975	 0	 13.8	 4	 1.05	 0.945;
	 40	 1	-39.55	 1.81	 0	 0	 1	 0.9975	 0	 18	 4	 1.05	 0.945;
	 41	 1	 0	 0	 0	 0	 1	 0.9975	 0	 22.8	 4	 1.05	 0.945;
	 42	 1	 46.52	-1.67	 0	 0	 1	 0.9975	 0	 69	 4	 1.05	 0.945;
	 43	 1	 5.15	 2.42	 0	 0	 1	 0.9975	 0	 345	 4	 1.05	 0.945;
	 44	 1	 0	 0	 0	 0	 1	 0.9975	 0	 345	 4	 1.05	 0.945;
	 45	 1	 90.52	 44.01	 0	 0	 1	 0.9975	 0	 345	 4	 1.05	 0.945;
	 46	 1	 0	 0	 0	 0	 1	 0.9975	 0	 345	 4	 1.05	 0.945;
	 47	 1	-5.12	 0.35	 0	 0	 1	 0.9975	 0	 345	 4	 1.05	 0.945;
	 48	 1	 14.83	-3.41	 0	 4.582	 1	 0.9975	 0	 69	 4	 1.05	 0.945;
	 49	 1	 49.67	 13.3	 0	 0	 1	 0.9975	 0	 22	 4	 1.05	 0.945;
	 50	 1	 23.79	 1.76	 0	 0	 1	 0.9975	 0	 138	 4	 1.05	 0.945;
	 51	 1	 0	 0	 0	 0	 1	 0.9975	 0	 138	 4	 1.05	 0.945;
	 52	 1	 0	 0	 0	 0	 1	 0.9975	 0	 22.8	 4	 1.05	 0.945;
	 53	 1	 93.66	 3.51	 0	 0	 1	 0.9975	 0	 345	 4	 1.05	 0.945;
	 54	 1	 0	 0	 0	 0	 1	 0.9975	 0	 138	 10	 1.05	 0.945;
	 55	 1	 66.71	 7.26	 0	 0	 1	 0.9975	 0	 138	 10	 1.05	 0.945;
	 56	 1	 39.32	 33.7	 0	 0	 1	 0.9975	 0	 138	 10	 1.05	 0.945;
	 57	 1	 0	 0	 0	 0	 1	 0.9975	 0	 34.5	 10	 1.05	 0.945;
	 58	 1	 52.74	-16.61	 0	 5.81989066581	 1	 0.9975	 0	 69	 10	 1.05	 0.945;
	 59	 1	-1.71	-3.54	 0	 0	 1	 0.9975	 0	 138	 10	 1.05	 0.945;
	 60	 1	 50.77	 1.21	 0	 0	 1	 0.9975	 0	 138	 10	 1.05	 0.945;
	 61	 1	 75.34	 14.04	 0	 0	 1	 0.9975	 0	 69	 10	 1.05	 0.945;
	 62	 2	 0	 0	 0	 0	 1	 0.9975	 0	 15.5	 10	 1.05	 0.945;
	 63	 2	 0	 0	 0	 0	 1	 0.9975	 0	 138	 10	 1.05	 0.945;
	 64	 2	 0	 0	 0	 0	 1	 0.9975	 0	 1	 10	 1.05	 0.945;
	 65	 1	-5.57	 6.19	 0	 0	 1	 0.9975	 0	 138	 10	 1.05	 0.945;
	 66	 1	 22.47	-9.42	 0	-10.047	 1	 0.9975	 0	 138	 10	 1.05	 0.945;
	 67	 1	-16.32	 15.27	 0	 0	 1	 0.9975	 0	 138	 10	 1.05	 0.945;
	 68	 1	 0	 0	 0	 0	 1	 0.9975	 0	 138	 10	 1.05	 0.945;
	 69	 1	 18.35	-0.13	 0	 0	 1	 0.9975	 0	 138	 10	 1.05	 0.945;
	 70	 1	 11.76	 8.21	 0	 0	 1	 0.9975	 0	 138	 10	 1.05	 0.945;
	 71	 1	 20.75	-5.2	 0	 0	 1	 0.9975	 0	 138	 10	 1.05	 0.945;
	 72	 1	 0	 0	 0	 0	 1	 0.9975	 0	 138	 10	 1.05	 0.945;
	 73	 1	 0	 0	 0	 0	 1	 0.9975	 0	 138	 10	 1.05	 0.945;
	 74	 1	 0.56	-21.7	 0	 0	 1	 0.9975	 0	 138	 10	 1.05	 0.945;
	 75	 1	 43.11	 19.71	 0	 0	 1	 0.9975	 0	 34.5	 10	 1.05	 0.945;
	 76	 1	 0	 0	 0	 0	 1	 0.9975	 0	 161	 10	 1.05	 0.945;
	 77	 1	 0	 0	 0	 0	 1	 0.9975	 0	 138	 10	 1.05	 0.945;
	 78	 1	 0.29	-0.65	 0	 0	 1	 0.9975	 0	 138	 10	 1.05	 0.945;
	 79	 1	 0	 0	 0	 0	 1	 0.9975	 0	 138	 10	 1.05	 0.945;
	 80	 1	 39.95	 2.12	 0	 0	 1	 0.9975	 0	 138	 10	 1.05	 0.945;
	 81	 1	 26.44	 2.54	 0	 8.96930139447	 1	 0.9975	 0	 69	 10	 1.05	 0.945;
	 82	 1	 0	 0	 0	 0	 1	 0.9975	 0	 138	 10	 1.05	 0.945;
	 83	 1	-3.02	 3.5	 0	 0	 1	 0.9975	 0	 34.5	 10	 1.05	 0.945;
	 84	 1	 0	 0	 0	 0	 1	 0.9975	 0	 138	 10	 1.05	 0.945;
	 85	 1	 0	 0	 0	 0	 1	 0.9975	 0	 138	 10	 1.05	 0.945;
	 86	 1	 6.14	-3.44	 0	 0	 1	 0.9975	 0	 138	 10	 1.05	 0.945;
	 87	 1	 0	 0	 0	 0	 1	 0.9975	 0	 34.5	 10	 1.05	 0.945;
	 88	 1	 0	 0	 0	 0	 1	 0.9975	 0	 138	 10	 1.05	 0.945;
	 89	 2	 0	 0	 0	 0	 1	 0.9975	 0	 138	 10	 1.05	 0.945;
	 90	 1	 14.18	-8.67	 0	 0	 1	 0.9975	 0	 138	 10	 1.05	 0.945;
	 91	 1	 0	 0	 0	 0	 1	 0.9975	 0	 34.5	 10	 1.05	 0.945;
	 92	 1	 0	 0	 0	 0	 1	 0.9975	 0	 138	 10	 1.05	 0.945;
	 93	 1	 0	 0	 0	 0	 1	 0.9975	 0	 138	 10	 1.05	 0.945;
	 94	 1	 48.05	 2.59	 0	 0.000472725421476	 1	 0.9975	 0	 34.5	 10	 1.05	 0.945;
	 95	 2	 0	 0	 0	 0	 1	 0.9975	 0	 138	 10	 1.05	 0.945;
	 96	 1	 0	 0	 0	 0	 1	 0.9975	 0	 138	 10	 1.05	 0.945;
	 97	 2	 0	 0	 0	-10.98	 1	 0.9975	 0	 138	 10	 1.05	 0.945;
	 98	 1	 49.87	-0.93	 0	 0	 1	 0.9975	 0	 69	 10	 1.05	 0.945;
	 99	 1	 63.8	-18.18	 0	 0	 1	 0.9975	 0	 138	 10	 1.05	 0.945;
	 100	 1	 0	 0	 0	 0	 1	 0.9975	 0	 138	 10	 1.05	 0.945;
	 101	 1	 20.46	-25.78	 0	 0	 1	 0.9975	 0	 138	 10	 1.05	 0.945;
	 102	 1	 0	 0	 0	 0	 1	 0.9975	 0	 138	 10	 1.05	 0.945;
	 103	 1	 125.85	 8.93	 0	 0	 1	 0.9975	 0	 69	 10	 1.05	 0.945;
	 104	 1	 150.26	 27.34	 0	 0	 1	 0.9975	 0	 138	 10	 1.05	 0.945;
	 105	 1	 0	 0	 0	 0	 1	 0.9975	 0	 138	 10	 1.05	 0.945;
	 106	 1	-24.51	 5.54	 0	 0	 1	 0.9975	 0	 138	 10	 1.05	 0.945;
	 107	 1	 11.5	 11.28	 0	 0	 1	 0.9975	 0	 138	 10	 1.05	 0.945;
	 108	 1	 25.48	 14.1	 0	 0	 1	 0.9975	 0	 138	 10	 1.05	 0.945;
	 109	 1	 16.41	-0.53	 0	 0	 1	 0.9975	 0	 138	 10	 1.05	 0.945;
	 110	 2	 0	 0	 0	 0	 1	 0.9975	 0	 161	 10	 1.05	 0.945;
	 111	 1	 0	 0	 0	 0	 1	 0.9975	 0	 138	 10	 1.05	 0.945;
	 112	 1	 0	 0	 0	 0	 1	 0.9975	 0	 138	 10	 1.05	 0.945;
	 113	 1	 0	 0	 0	 0	 1	 0.9975	 0	 138	 10	 1.05	 0.945;
	 114	 1	 34.44	-2.19	 0	 0	 1	 0.9975	 0	 34.5	 10	 1.05	 0.945;
	 115	 1	 20.88	-5.53	 0	 0	 1	 0.9975	 0	 138	 10	 1.05	 0.945;
	 116	 1	 4.9	 9.01	 0	 0	 1	 0.9975	 0	 138	 10	 1.05	 0.945;
	 117	 1	 22.98	-11.22	 0	 0	 1	 0.9975	 0	 138	 10	 1.05	 0.945;
	 118	 1	 0	 0	 0	 0	 1	 0.9975	 0	 138	 10	 1.05	 0.945;
	 119	 1	 0	 0	 0	 0	 1	 0.9975	 0	 138	 10	 1.05	 0.945;
	 120	 1	 12.96	 3.4	 0	 0	 1	 0.9975	 0	 34.5	 10	 1.05	 0.945;
	 121	 1	 0	 0	 0	 0	 1	 0.9975	 0	 138	 10	 1.05	 0.945;
	 122	 1	 86.97	 10.02	 0	 21.874839812	 1	 0.9975	 0	 69	 10	 1.05	 0.945;
	 123	 1	 114.96	 0.17	 0	 4.31995246092	 1	 0.9975	 0	 69	 10	 1.05	 0.945;
	 124	 1	 0	 0	 0	 0	 1	 0.9975	 0	 138	 10	 1.05	 0.945;
	 125	 1	 47.61	-30.65	 0	 0	 1	 0.9975	 0	 69	 10	 1.05	 0.945;
	 126	 2	 29.18	 8.91	 0	 9.10469792805	 1	 0.9975	 0	 34.5	 10	 1.05	 0.945;
	 127	 1	 16	-1.01	 0	 0	 1	 0.9975	 0	 138	 10	 1.05	 0.945;
	 128	 1	 23.46	 4.9	 0	 0	 1	 0.9975	 0	 69	 10	 1.05	 0.945;
	 129	 2	 0	 0	 0	-12.405	 1	 0.9975	 0	 138	 10	 1.05	 0.945;
	 130	 1	 0	 0	 0	 0	 1	 0.9975	 0	 138	 10	 1.05	 0.945;
	 131	 1	 8.79	 1.46	 0	 0	 1	 0.9975	 0	 138	 10	 1.05	 0.945;
	 132	 1	 66.49	 14.31	 0	 0	 1	 0.9975	 0	 138	 10	 1.05	 0.945;
	 133	 1	 0	 0	 0	 0	 1	 0.9975	 0	 138	 10	 1.05	 0.945;
	 134	 1	 1.11	-1.39	 0	 0	 1	 0.9975	 0	 138	 10	 1.05	 0.945;
	 135	 1	 0	 0	 0	 0	 1	 0.9975	 0	 13.8	 10	 1.05	 0.945;
	 136	 1	 33.06	 5.92	 0	 0	 1	 0.9975	 0	 138	 10	 1.05	 0.945;
	 137	 1	 0	 0	 0	 0	 1	 0.9975	 0	 138	 10	 1.05	 0.945;
	 138	 1	 0	 0	 0	 0	 1	 0.9975	 0	 138	 10	 1.05	 0.945;
	 139	 1	 0	 0	 0	 0	 1	 0.9975	 0	 34.5	 10	 1.05	 0.945;
	 140	 1	 0	 0	 0	 0	 1	 0.9975	 0	 138	 10	 1.05	 0.945;
	 141	 1	 90.31	-0.6	 0	 0	 1	 0.9975	 0	 138	 10	 1.05	 0.945;
	 142	 1	 0	 0	 0	 0	 1	 0.9975	 0	 138	 10	 1.05	 0.945;
	 143	 1	 0	 0	 0	 0	 1	 0.9975	 0	 138	 10	 1.05	 0.945;
	 144	 1	 30.76	 4.88	 0	 0	 1	 0.9975	 0	 138	 10	 1.05	 0.945;
	 145	 1	 0	 0	 0	 0	 1	 0.9975	 0	 138	 10	 1.05	 0.945;
	 146	 1	 18.5	 8.71	 0	 0	 1	 0.9975	 0	 138	 10	 1.05	 0.945;
	 147	 1	 59.62	 7.21	 0	 0	 1	 0.9975	 0	 138	 10	 1.05	 0.945;
	 148	 2	 0	 0	 0	-11.04	 1	 0.9975	 0	 138	 10	 1.05	 0.945;
	 149	 1	 0	 0	 0	 0	 1	 0.9975	 0	 138	 10	 1.05	 0.945;
	 150	 1	 11.73	 3.64	 0	 0	 1	 0.9975	 0	 138	 10	 1.05	 0.945;
	 151	 1	 0	 0	 0	 0	 1	 0.9975	 0	 138	 10	 1.05	 0.945;
	 152	 1	 0	 0	 0	 0	 1	 0.9975	 0	 138	 10	 1.05	 0.945;
	 153	 1	 26.83	 3.04	 0	 32.1999734459	 1	 0.9975	 0	 138	 10	 1.05	 0.945;
	 154	 1	 0	 0	 0	 0	 1	 0.9975	 0	 138	 10	 1.05	 0.945;
	 155	 1	 0	 0	 0	 0	 1	 0.9975	 0	 138	 10	 1.05	 0.945;
	 156	 1	 0	 0	 0	 0	 1	 0.9975	 0	 138	 10	 1.05	 0.945;
	 157	 1	 0	 0	 0	 0	 1	 0.9975	 0	 138	 10	 1.05	 0.945;
	 158	 1	 0	 0	 0	 0	 1	 0.9975	 0	 138	 10	 1.05	 0.945;
	 159	 1	 3.81	 39.84	 0	 0	 1	 0.9975	 0	 138	 10	 1.05	 0.945;
	 160	 1	 0	 0	 0	 0	 1	 0.9975	 0	 138	 10	 1.05	 0.945;
	 161	 1	 10.24	 7.09	 0	 0	 1	 0.9975	 0	 138	 10	 1.05	 0.945;
	 162	 1	 0	 0	 0	 7.51161012063e-05	 1	 0.9975	 0	 69	 11	 1.05	 0.945;
	 163	 1	 0	 0	 0	 0	 1	 0.9975	 0	 138	 11	 1.05	 0.945;
	 164	 1	 14.95	-0.56	 0	-0.00047588306922	 1	 0.9975	 0	 33	 11	 1.05	 0.945;
	 165	 1	 9.32	 0.23	 0	 0	 1	 0.9975	 0	 138	 11	 1.05	 0.945;
	 166	 1	 22.08	 0.56	 0	 0	 1	 0.9975	 0	 13.8	 11	 1.05	 0.945;
	 167	 1	 0	 0	 0	 0	 1	 0.9975	 0	 138	 11	 1.05	 0.945;
	 168	 1	 0	 0	 0	 0	 1	 0.9975	 0	 13.8	 11	 1.05	 0.945;
	 169	 1	 31.55	 0.18	 0	 0	 1	 0.9975	 0	 13.8	 11	 1.05	 0.945;
	 170	 1	 18.06	 3.62	 0	 0	 1	 0.9975	 0	 138	 11	 1.05	 0.945;
	 171	 1	 0	 0	 0	 0	 1	 0.9975	 0	 13.8	 11	 1.05	 0.945;
	 172	 1	 31.55	 0.18	 0	 0	 1	 0.9975	 0	 13.8	 11	 1.05	 0.945;
	 173	 1	 22.08	 0.58	 0	 0	 1	 0.9975	 0	 13.8	 11	 1.05	 0.945;
	 174	 1	 0	 0	 0	 0	 1	 0.9975	 0	 138	 11	 1.05	 0.945;
	 175	 1	 0	 0	 0	 0	 1	 0.9975	 0	 138	 11	 1.05	 0.945;
	 176	 1	 0	 0	 0	 0	 1	 0.9975	 0	 138	 11	 1.05	 0.945;
	 177	 1	 0	 0	 0	 0	 1	 0.9975	 0	 138	 11	 1.05	 0.945;
	 178	 2	 0	 0	 0	 55.8786938724	 1	 0.9975	 0	 138	 11	 1.05	 0.945;
	 179	 1	 14.09	 3	 0	 5.10957073285	 1	 0.9975	 0	 69	 11	 1.05	 0.945;
	 180	 1	 0	 0	 0	 0	 1	 0.9975	 0	 138	 11	 1.05	 0.945;
	 181	 1	 0	 0	 0	 0	 1	 0.9975	 0	 138	 11	 1.05	 0.945;
	 182	 1	 0	 0	 0	 0	 1	 0.9975	 0	 13.8	 11	 1.05	 0.945;
	 183	 1	 0	 0	 0	 0	 1	 0.9975	 0	 138	 11	 1.05	 0.945;
	 184	 1	 0	 0	 0	 0	 1	 0.9975	 0	 138	 11	 1.05	 0.945;
	 185	 1	 18.41	 4.63	 0	 3.30364233072	 1	 0.9975	 0	 69	 11	 1.05	 0.945;
	 186	 1	 0	 0	 0	 0	 1	 0.9975	 0	 13.8	 11	 1.05	 0.945;
	 187	 1	 13.63	 0.32	 0	 0.0318908762743	 1	 0.9975	 0	 69	 11	 1.05	 0.945;
	 188	 1	 0	 0	 0	 0	 1	 0.9975	 0	 138	 11	 1.05	 0.945;
	 189	 1	 0	 0	 0	 0	 1	 0.9975	 0	 138	 11	 1.05	 0.945;
	 190	 1	 31.55	 0.18	 0	 0	 1	 0.9975	 0	 13.8	 11	 1.05	 0.945;
	 191	 1	 0	 0	 0	 0	 1	 0.9975	 0	 138	 11	 1.05	 0.945;
	 192	 1	 0	 0	 0	 0	 1	 0.9975	 0	 138	 11	 1.05	 0.945;
	 193	 1	 0	 0	 0	 0	 1	 0.9975	 0	 13.8	 11	 1.05	 0.945;
	 194	 1	 0	 0	 0	 0	 1	 0.9975	 0	 138	 11	 1.05	 0.945;
	 195	 2	 0	 0	 0	 0	 1	 0.9975	 0	 1	 11	 1.05	 0.945;
	 196	 1	 0	 0	 0	 0	 1	 0.9975	 0	 13.8	 11	 1.05	 0.945;
	 197	 1	 22.08	 0.58	 0	 0	 1	 0.9975	 0	 13.8	 11	 1.05	 0.945;
	 198	 1	 22.08	 0.56	 0	 0	 1	 0.9975	 0	 13.8	 11	 1.05	 0.945;
	 199	 1	 12.81	-13.95	 0	 0	 1	 0.9975	 0	 138	 11	 1.05	 0.945;
	 200	 1	 0	 0	 0	-9.9996388777	 1	 0.9975	 0	 345	 11	 1.05	 0.945;
...
];

mpc_regionR1.gen = [
%	bus         Pg          Qg          Qmax        Qmin        Vg          mBase       status      Pmax        Pmin        Pc1         Pc2         Qc1min      Qc1max      Qc2min      Qc2max      ramp_agc    ramp_10     ramp_30     ramp_q      apf         
	 9	 0	 0	 32.281	-32.281	 0.9975	 108	 0	 27	 21.375;
	 13	 380	 0	 550	-550	 0.9975	 100	 1	 720	 40;
	 15	 0	 0	 216	-216	 0.9975	 108	 0	 432	 21.375;
	 17	 0	 0	 118	-118	 0.9975	 235.83	 0	 236	 49.875;
	 17	 0	 0	 159	-159	 0.9975	 265.3	 0	 318	 8.4705;
	 17	 0	 0	 75	-75	 0.9975	 176.87	 0	 149	 8.6765;
	 19	 0	 0	 48	-48	 0.9975	 108	 0	 96	 21.375;
	 22	 139.51675	 0	 128	-128	 0.9975	 235.83	 1	 256	 23.0335;
	 22	 0	 0	 43	-43	 0.9975	 265.3	 0	 86	 6.9485;
	 22	 0	 0	 39	-39	 0.9975	 176.87	 0	 77	 17.179;
	 23	 536.8835	 0	 550	-550	 0.9975	 100	 1	 1069	 4.767;
	 25	 0	 0	 39	-39	 0.9975	 4.33	 0	 78	 8.706;
	 25	 0	 0	 55	-55	 0.9975	 4.33	 0	 109	 1.71;
	 25	 0	 0	 38	-38	 0.9975	 4.33	 0	 76	 7.7355;
	 26	 0	 0	 33.05	-33.05	 0.9975	 108	 0	 62	 21.375;
	 28	 0	 0	 131.431	-131.431	 0.9975	 491.41	 0	 134	 101.65;
	 28	 0	 0	 11	-11	 0.9975	 33.7	 0	 21	 5.7;
	 28	 0	 0	 83	-83	 0.9975	 242.59	 0	 165	 36.1;
	 28	 0	 0	 11	-11	 0.9975	 300	 0	 22	 2.85;
	 36	 574.5	 0	 574	-574	 0.9975	 100	 1	 1148	 1;
	 37	 134.75	 0	 127.547	-127.547	 0.9975	 387.5	 1	 184	 85.5;
	 38	 0	 0	 53	-53	 0.9975	 108	 0	 106	 21.375;
	 39	 0	 0	 63	-63	 0.9975	 108	 0	 125	 21.375;
	 40	 0	 0	 102.992	-102.992	 0.9975	 387.5	 0	 122	 85.5;
	 41	 0	 0	 67	-67	 0.9975	 235.83	 0	 134	 38.125;
	 41	 0	 0	 407	-407	 0.9975	 265.3	 0	 813	 42.4585;
	 41	 0	 0	 92	-92	 0.9975	 176.87	 0	 183	 28.321;
	 49	 0	 0	 251.33	-212.5	 0.9975	 636.62	 0	 4	 484.5;
	 52	 0	 0	 77.629	-77.629	 0.9975	 235.83	 0	 5	 99.75;
	 52	 0	 0	 88.433	-88.433	 0.9975	 265.3	 0	 142	 7.559;
	 52	 0	 0	 78	-78	 0.9975	 176.87	 0	 155	 7.6765;
	 57	 0	 0	 263	-263	 0.9975	 122.48	 0	 525	 3.3355;
	 58	 0	 0	 34	-34	 0.9975	 100	 0	 68	 4.941;
	 61	 0	 0	 100.687	-100.687	 0.9975	 330	 0	 39	 8.091;
	 61	 0	 0	 52	-52	 0.9975	 160	 0	 104	 3.613;
	 62	 0	 0	 71	-71	 0.9975	 125	 0	 141	 3.0265;
	 62	 164.73775	 0	 162	-162	 0.9975	 201.27	 1	 323	 6.4755;
	 63	 694	 0	 674	-674	 0.9975	 100	 1	 1348	 40;
	 64	 371.51075	 0	 550	-550	 0.9975	 100	 1	 712	 31.0215;
	 87	 0	 0	 40.827	-40.827	 0.9975	 122.48	 0	 62	 3.3355;
	 89	 99.97025	 0	 550	-550	 0.9975	 100	 1	 192	 7.9405;
	 91	 0	 0	 60	-60	 0.9975	 34	 0	 119	 8.441;
	 91	 0	 0	 17	-17	 0.9975	 34	 0	 33	 8.2355;
	 91	 0	 0	 191	-191	 0.9975	 100	 0	 382	 1;
	 91	 0	 0	 33.333	-33.333	 0.9975	 100	 0	 36	 7.353;
	 95	 43.43725	 0	 550	-550	 0.9975	 100	 1	 79	 7.8745;
	 97	 135	 0	 135	-135	 0.9975	 100	 1	 269	 1;
	 103	 0	 0	 29	-29	 0.9975	 100	 0	 57	 1;
	 108	 0	 0	 138.732	-138.732	 0.9975	 428	 0	 90	 11.1485;
	 110	 168.612	 0	 550	-550	 0.9975	 100	 1	 326	 11.224;
	 113	 0	 0	 19.887	-19.887	 0.9975	 59.66	 0	 7	 17.118;
	 113	 0	 0	 41	-41	 0.9975	 74	 0	 82	 8.7355;
	 119	 0	 0	 33.333	-33.333	 0.9975	 100	 0	 20	 7.6175;
	 122	 0	 0	 12	-12	 0.9975	 2.5	 0	 23	 1;
	 126	 133.95	 0	 133	-133	 0.9975	 100	 1	 266	 1.9;
	 129	 57	 0	 57	-57	 0.9975	 100	 1	 113	 1;
	 135	 0	 0	 59	-59	 0.9975	 93.75	 0	 117	 2.4395;
	 139	 0	 0	 28.5	-28.5	 0.9975	 85.5	 0	 24	 8.5;
	 139	 0	 0	 871	-871	 0.9975	 85.5	 0	 1742	 7.441;
	 143	 0	 0	 216	-216	 0.9975	 83.35	 0	 431	 7.9705;
	 143	 0	 0	 85	-85	 0.9975	 83.35	 0	 169	 7.412;
	 148	 51	 0	 51	-51	 0.9975	 100	 1	 101	 1;
	 149	 0	 0	 9.607	-9.607	 0.9975	 100	 0	 0	 2;
	 157	 0	 0	 46	-46	 0.9975	 100	 0	 91	 8.7645;
	 164	 0	 0	 80	-80	 0.9975	 10	 0	 160	 1;
	 168	 0	 0	 40	-40	 0.9975	 100	 0	 80	 2.7175;
	 171	 0	 0	 30	-30	 0.9975	 59.6	 0	 60	 1;
	 178	 119.5	 0	 119	-119	 0.9975	 100	 1	 238	 1;
	 182	 0	 0	 32.666	-32.666	 0.9975	 100	 0	 2	 5.25;
	 186	 0	 0	 106	-106	 0.9975	 59.6	 0	 211	 1.791;
	 187	 0	 0	 33.333	-33.333	 0.9975	 100	 0	 51	 7.8825;
	 193	 0	 0	 33.818	-20.08	 0.9975	 100	 0	 36	 2.7175;
	 195	 9.5	 0	 550	-550	 0.9975	 100	 1	 18	 1;
	 196	 0	 0	 21	-21	 0.9975	 59.6	 0	 42	 1.791;
	 201	 44.85875	 0	 44	-44	 0.9975	 100	 1	 87	 2.7175;
	 211	 36	 0	 36	-36	 0.9975	 100	 1	 71	 1;
	 213	 0	 0	 17	-17	 0.9975	 59.6	 0	 33	 1.1425;
	 215	 4.5	 0	 33.333	-33.333	 0.9975	 100	 1	 8	 1;
	 226	 0	 0	 71	-71	 0.9975	 100	 0	 141	 2.7795;
	 227	 6.5	 0	 600	-600	 0.9975	 2000	 1	 12	 1;
	 233	 192.5	 0	 192	-192	 0.9975	 100	 1	 384	 1;
	 236	 0	 0	 37.661	-37.661	 0.9975	 125	 0	 7	 3.0265;
	 236	 0	 0	 99	-99	 0.9975	 201.27	 0	 197	 6.4755;
	 237	 64	 0	 550	-550	 0.9975	 100	 1	 88	 40;
	 243	 0	 0	 166	-166	 0.9975	 97.58	 0	 331	 3.325;
	 244	 367	 0	 367	-367	 0.9975	 100	 1	 733	 1;
	 248	 186	 0	 186	-186	 0.9975	 100	 1	 371	 1;
	 259	 135	 0	 135	-135	 0.9975	 100	 1	 269	 1;
	 260	 0	 0	 138.732	-138.732	 0.9975	 428	 0	 134	 11.1485;
	 263	 0	 0	 139	-139	 0.9975	 59.66	 0	 277	 8.2645;
	 263	 0	 0	 24.667	-24.667	 0.9975	 74	 0	 30	 8.088;
	 264	 87.5135	 0	 550	-550	 0.9975	 100	 1	 169	 6.027;
	 265	 19.9575	 0	 550	-550	 0.9975	 100	 1	 37	 2.915;
	 266	 17.77175	 0	 550	-550	 0.9975	 100	 1	 33	 2.5435;
	 267	 257.14025	 0	 550	-550	 0.9975	 100	 1	 504	 10.2805;
	 275	 0	 0	 19.215	-18	 0.9975	 53.3	 0	 36	 1.125;
	 276	 0	 0	 30.36	-30.36	 0.9975	 93.75	 0	 37	 2.4395;
	 280	 125.8085	 0	 550	-550	 0.9975	 100	 1	 236	 15.617;
	 281	 0	 0	 9.607	-9.607	 0.9975	 100	 0	 4	 1;
	 293	 90.294	 13.625	 126.25	-99	 0.9975	 517	 1	 167	 13.588;
	 295	 0	 0	 69.943	-69.943	 0.9975	 233	 0	 17	 5.6205;
	 296	 0	 0	 22	-22	 0.9975	 59.8	 0	 43	 1.6985;
	 296	 67.521	 0	 550	-550	 0.9975	 100	 1	 126	 9.042;
	 301	 86.5	 0	 550	-550	 0.9975	 100	 1	 172	 1;
	 313	 6.5	 0	 33.333	-33.333	 0.9975	 100	 1	 12	 1;
	 318	 39.95575	 0	 550	-550	 0.9975	 100	 1	 74	 5.9115;
	 324	 48.761	 0	 550	-550	 0.9975	 100	 1	 89	 8.522;
	 326	 214	 0	 550	-550	 0.9975	 100	 1	 388	 40;
	 336	 0	 0	 19	-19	 0.9975	 100	 0	 38	 1.4515;
	 336	 0	 0	 69	-69	 0.9975	 100	 0	 137	 1.4825;
	 336	 0	 0	 103	-103	 0.9975	 100	 0	 205	 1.4825;
	 336	 0	 0	 53	-53	 0.9975	 100	 0	 105	 1.4825;
	 336	 0	 0	 164.48	-154.78	 0.9975	 542.8	 0	 115	 13.2175;
	 336	 0	 0	 74	-74	 0.9975	 100	 0	 147	 1.4515;
	 338	 17.02025	 0	 550	-550	 0.9975	 100	 1	 23	 11.0405;
	 340	 0	 0	 167	-167	 0.9975	 256	 0	 333	 7.072;
	 362	 0	 0	 91	-91	 0.9975	 20.65	 0	 182	 8.7355;
	 362	 190.5	 0	 190	-190	 0.9975	 20.65	 1	 380	 1;
	 362	 112.56	 0	 110	-110	 0.9975	 20.65	 1	 219	 6.12;
	 362	 0	 0	 11	-11	 0.9975	 20.65	 0	 21	 1;
	 363	 0	 0	 514	-514	 0.9975	 195	 0	 1027	 5.3735;
	 368	 0	 0	 99	-99	 0.9975	 235.5	 0	 197	 6.9795;
	 370	 109	 0	 109	-109	 0.9975	 100	 1	 217	 1;
	 377	 44.5	 0	 44	-44	 0.9975	 100	 1	 88	 1;
];

mpc_regionR1.branch = [
%	fbus        tbus        r           x           b           rateA       rateB       rateC       ratio       angle       status      angmin      angmax      
	 2	 20	 0.00369	 0.02271	 0.00772	 280	 322	 322	 0	 0	 1	-30	 30;
	 2	 50	 0.00189	 0.01166	 0.00397	 280	 322	 322	 0	 0	 1	-30	 30;
	 3	 16	 0.00045	 0.00565	 0	 1195	 1195	 1195	 0	 0	 1	-30	 30;
	 3	 47	 0.00293	 0.03675	 0.58327	 1195	 1195	 1195	 0	 0	 1	-30	 30;
	 4	 31	 0.0041	 0.0165	 0.0004	 120	 120	 120	 0	 0	 1	-30	 30;
	 5	 11	 0.00965	 0.08147	 0.00266	 260	 312	 390	 0	 0	 1	-30	 30;
	 5	 24	 0.00661	 0.05581	 0.00203	 260	 312	 390	 0	 0	 1	-30	 30;
	 7	 18	 0.0167	 0.0555	 0.001	 260	 312	 390	 0	 0	 1	-30	 30;
	 7	 30	 0.0235	 0.0777	 8e-05	 260	 312	 390	 0	 0	 1	-30	 30;
	 7	 34	 0.0027	 0.0159	 0.0007	 260	 312	 390	 0	 0	 1	-30	 30;
	 7	 48	 0.03	 0.13966	 0.00222	 260	 312	 390	 0	 0	 1	-30	 30;
	 8	 27	 0.00047	 0.00569	 0.10004	 1255	 1374	 1374	 0	 0	 1	-30	 30;
	 8	 36	 0.0015	 0.0159	 0.246	 1423	 1686	 1686	 0	 0	 1	-30	 30;
	 10	 29	 0.0139	 0.0827	 0.0254	 336	 336	 336	 0	 0	 1	-30	 30;
	 10	 50	 0.0075	 0.051	 0.0156	 280	 322	 322	 0	 0	 1	-30	 30;
	 12	 23	 0.0011	 0.0124	 0.1945	 1344	 1545	 1545	 0	 0	 1	-30	 30;
	 12	 45	 0.0023	 0.0222	 0.3877	 1153	 1239	 1239	 0	 0	 1	-30	 30;
	 12	 47	 0.0004	 0.0049	 0.0787	 1255	 1374	 1374	 0	 0	 1	-30	 30;
	 14	 50	 0.0037	 0.0234	 0.0077	 277	 318	 318	 0	 0	 1	-30	 30;
	 16	 313	 0.0001	 0.01	 0	 154.35	 185.21	 231.52	 0	 0	 1	-30	 30;
	 18	 301	 0.0001	 0.01	 0	 83.7	 98.6	 125.55	 0	 0	 1	-30	 30;
	 21	 45	 0.0008	 0.0074	 0.12741	 770	 794	 794	 0	 0	 1	-30	 30;
	 23	 379	 0.0001	 0.01	 0	 1047	 1151.7	 1256.4	 1	 0	 1	-30	 30;
	 24	 42	 0.00135	 0.01134	 0.00029	 260	 312	 390	 0	 0	 1	-30	 30;
	 27	 44	 0.00108	 0.01377	 0.21893	 1255	 1374	 1374	 0	 0	 1	-30	 30;
	 32	 43	 0.00172	 0.01975	 0.30754	 1491	 1521	 1521	 0	 0	 1	-30	 30;
	 32	 53	 0.00139	 0.01743	 0.27367	 1476	 1476	 1476	 0	 0	 1	-30	 30;
	 33	 64	 0.0001	 0.01	 0	 109	 119.9	 130.8	 0	 0	 1	-30	 30;
	 36	 46	 0.0012	 0.0139	 0.2106	 1434	 1649	 1649	 0	 0	 1	-30	 30;
	 36	 293	 0.0001	 0.01	 0	 356.78	 428.14	 535.17	 0	 0	 1	-30	 30;
	 43	 47	 0.00076	 0.00964	 0.15715	 1255	 1374	 1374	 0	 0	 1	-30	 30;
	 44	 47	 0.00222	 0.0284	 0.44941	 1255	 1374	 1374	 0	 0	 1	-30	 30;
	 46	 47	 0.0014	 0.0171	 0.26047	 1255	 1374	 1374	 0	 0	 1	-30	 30;
	 48	 296	 0.0001	 0.01	 0	 83.7	 98.6	 125.55	 0	 0	 1	-30	 30;
	 53	 215	 0.0001	 0.01	 0	 350	 385	 420	 0	 0	 1	-30	 30;
	 54	 105	 0.03	 0.1231	 0.0321	 190	 195	 195	 0	 0	 1	-30	 30;
	 54	 107	 0.0004	 0.0026	 0.00067	 160	 160	 160	 0	 0	 1	-30	 30;
	 54	 137	 0.03	 0.137	 0	 142	 184	 185	 0	 0	 1	-30	 30;
	 55	 99	 0.0064	 0.0338	 0.0092	 260	 312	 390	 0	 0	 1	-30	 30;
	 55	 115	 0.03	 0.116	 0.0291	 260	 312	 390	 0	 0	 1	-30	 30;
	 56	 107	 0.0008	 0.0028	 0.00067	 260	 312	 390	 0	 0	 1	-30	 30;
	 56	 158	 0.0091	 0.0343	 0.0085	 260	 312	 390	 0	 0	 1	-30	 30;
	 58	 98	 0.03	 0.15	 0	 260	 312	 390	 0	 0	 1	-30	 30;
	 58	 103	 0.03	 0.15	 0	 260	 312	 390	 0	 0	 1	-30	 30;
	 58	 125	 0.03	 0.15	 0	 260	 312	 390	 0	 0	 1	-30	 30;
	 59	 88	 0.004	 0.0103	 0.0022	 120	 154	 154	 0	 0	 1	-30	 30;
	 60	 68	 0.0081	 0.0536	 0.01392	 260	 312	 390	 0	 0	 1	-30	 30;
	 60	 160	 0.0055	 0.0361	 0.00974	 260	 312	 390	 0	 0	 1	-30	 30;
	 61	 81	 0.01122	 0.05423	 0	 260	 312	 390	 0	 0	 1	-30	 30;
	 61	 103	 0.03	 0.15	 0	 260	 312	 390	 0	 0	 1	-30	 30;
	 61	 122	 0.00937	 0.03769	 0	 260	 312	 390	 0	 0	 1	-30	 30;
	 61	 123	 0.03	 0.15	 0	 260	 312	 390	 0	 0	 1	-30	 30;
	 61	 125	 0.03	 0.15	 0	 260	 312	 390	 0	 0	 1	-30	 30;
	 61	 128	 0.03	 0.13574	 0	 260	 312	 390	 0	 0	 1	-30	 30;
	 63	 65	 0.0066	 0.0427	 0.0118	 260	 312	 390	 0	 0	 1	-30	 30;
	 63	 77	 0.0091	 0.0591	 0.01616	 260	 312	 390	 0	 0	 1	-30	 30;
	 63	 108	 0.0027	 0.0275	 0.0123	 260	 312	 390	 0	 0	 1	-30	 30;
	 63	 108	 0.0057	 0.0354	 0.0099	 260	 312	 390	 0	 0	 1	-30	 30;
	 63	 136	 0.0042	 0.0207	 0.005	 260	 312	 390	 0	 0	 1	-30	 30;
	 63	 283	 0.0001	 0.01	 0	 547	 601.7	 656.4	 0	 0	 1	-30	 30;
	 65	 106	 0.0074	 0.0398	 0.0454	 260	 312	 390	 0	 0	 1	-30	 30;
	 66	 93	 0.00103	 0.00834	 0	 269	 349	 459	 0	 0	 1	-30	 30;
	 66	 280	 0.0001	 0.01	 0	 83.7	 98.6	 125.55	 0	 0	 1	-30	 30;
	 67	 92	 0.0111	 0.0464	 0.01182	 260	 312	 390	 0	 0	 1	-30	 30;
	 67	 155	 0.0092	 0.0452	 0.01152	 260	 312	 390	 0	 0	 1	-30	 30;
	 68	 146	 0.0019	 0.0123	 0.00349	 260	 312	 390	 0	 0	 1	-30	 30;
	 68	 152	 0.01	 0.0641	 0.018	 260	 312	 390	 0	 0	 1	-30	 30;
	 69	 78	 0.0171	 0.0641	 0.0158	 260	 312	 390	 0	 0	 1	-30	 30;
	 69	 101	 0.0165	 0.0618	 0.01534	 260	 312	 390	 0	 0	 1	-30	 30;
	 70	 132	 0.0003	 0.0012	 0	 260	 312	 390	 0	 0	 1	-30	 30;
	 70	 158	 0.0102	 0.0369	 0.001	 260	 312	 390	 0	 0	 1	-30	 30;
	 71	 127	 0.0153	 0.0573	 0.01422	 260	 312	 390	 0	 0	 1	-30	 30;
	 71	 149	 0.0107	 0.04	 0.0099	 260	 312	 390	 0	 0	 1	-30	 30;
	 72	 138	 0.0002	 0.00242	 0.04968	 351	 364	 364	 0	 0	 1	-30	 30;
	 73	 95	 0.0012	 0.0047	 0.00119	 184	 214	 225	 0	 0	 1	-30	 30;
	 73	 143	 0.02164	 0.09011	 0.08713	 155	 194	 228	 0	 0	 1	-30	 30;
	 74	 92	 0.00118	 0.0058	 0.00153	 260	 312	 390	 0	 0	 1	-30	 30;
	 74	 136	 0.00532	 0.02622	 0.007	 260	 312	 390	 0	 0	 1	-30	 30;
	 75	 120	 0.0102	 0.0274	 0.0067	 260	 312	 390	 0	 0	 1	-30	 30;
	 76	 110	 0.0261	 0.0959	 0.04352	 229	 229	 229	 0	 0	 1	-30	 30;
	 78	 107	 0.00104	 0.00387	 0.00101	 260	 312	 390	 0	 0	 1	-30	 30;
	 80	 144	 0.0037	 0.0146	 0.00414	 260	 312	 390	 0	 0	 1	-30	 30;
	 81	 123	 0.01579	 0.07462	 0	 260	 312	 390	 0	 0	 1	-30	 30;
	 81	 125	 0.03	 0.13573	 0	 260	 312	 390	 0	 0	 1	-30	 30;
	 82	 107	 0.00989	 0.05821	 0.0152	 260	 312	 390	 0	 0	 1	-30	 30;
	 82	 144	 3e-05	 0.001	 0	 260	 312	 390	 0	 0	 1	-30	 30;
	 82	 153	 0.01324	 0.05369	 0.014	 260	 312	 390	 0	 0	 1	-30	 30;
	 84	 154	 0.00044	 0.00473	 0.00192	 300	 300	 300	 0	 0	 1	-30	 30;
	 85	 108	 0.03	 0.15	 0.0537	 159	 189	 189	 0	 0	 1	-30	 30;
	 85	 145	 0.0001	 0.001	 0	 351	 449	 459	 0	 0	 1	-30	 30;
	 85	 156	 0.0001	 0.001	 0	 190	 246	 246	 0	 0	 1	-30	 30;
	 86	 95	 0.02847	 0.10787	 0.02573	 164	 167	 167	 0	 0	 1	-30	 30;
	 86	 211	 0.0001	 0.01	 0	 83.7	 98.6	 125.55	 0	 0	 1	-30	 30;
	 88	 100	 0.01592	 0.06562	 0.01637	 173	 214	 223	 0	 0	 1	-30	 30;
	 88	 133	 0.0013	 0.0112	 0.00281	 173	 223	 223	 0	 0	 1	-30	 30;
	 89	 117	 0.01328	 0.05491	 0.01306	 173	 223	 223	 0	 0	 1	-30	 30;
	 89	 351	 0.0001	 0.01	 0	 132.68	 159.22	 199.02	 0	 0	 1	-30	 30;
	 90	 121	 0.00291	 0.01178	 0.00301	 260	 312	 390	 0	 0	 1	-30	 30;
	 90	 132	 0.0119	 0.0901	 0.025	 260	 312	 390	 0	 0	 1	-30	 30;
	 92	 147	 0.0032	 0.0203	 0.00576	 260	 312	 390	 0	 0	 1	-30	 30;
	 92	 161	 0.0005	 0.0029	 0.00079	 260	 312	 390	 0	 0	 1	-30	 30;
	 93	 124	 0.00776	 0.04024	 0.01073	 173	 223	 223	 0	 0	 1	-30	 30;
	 93	 131	 0.0001	 0.001	 0	 208	 264	 266	 0	 0	 1	-30	 30;
	 95	 273	 0.0001	 0.01	 0	 245.91	 295.1	 368.87	 0	 0	 1	-30	 30;
	 96	 109	 0.0009	 0.0034	 0.00098	 260	 312	 390	 0	 0	 1	-30	 30;
	 96	 148	 0.0008	 0.0021	 0.00049	 260	 312	 390	 0	 0	 1	-30	 30;
	 96	 149	 0.007	 0.0264	 0.0061	 260	 312	 390	 0	 0	 1	-30	 30;
	 97	 199	 0.0001	 0.01	 0	 83.7	 98.6	 125.55	 0	 0	 1	-30	 30;
	 98	 103	 0.01153	 0.05009	 0	 260	 312	 390	 0	 0	 1	-30	 30;
	 99	 129	 0.019	 0.0919	 0.05078	 260	 312	 390	 0	 0	 1	-30	 30;
	 100	 105	 0.0268	 0.1105	 0.0268	 173	 214	 223	 0	 0	 1	-30	 30;
	 100	 150	 0.0001	 0.001	 0	 208	 264	 266	 0	 0	 1	-30	 30;
	 101	 115	 0.0042	 0.01566	 0.00396	 260	 312	 390	 0	 0	 1	-30	 30;
	 101	 118	 0.0001	 0.001	 0	 351	 449	 459	 0	 0	 1	-30	 30;
	 101	 157	 0.0001	 0.001	 0	 260	 312	 390	 0	 0	 1	-30	 30;
	 102	 113	 0.0289	 0.1165	 0.0304	 174	 174	 174	 0	 0	 1	-30	 30;
	 102	 124	 0.03	 0.1411	 0.0355	 115	 115	 115	 0	 0	 1	-30	 30;
	 102	 144	 0.0001	 0.001	 0.00049	 160	 202	 202	 0	 0	 1	-30	 30;
	 103	 123	 0.00574	 0.0191	 0	 260	 312	 390	 0	 0	 1	-30	 30;
	 104	 152	 0.0017	 0.0108	 0.00291	 260	 312	 390	 0	 0	 1	-30	 30;
	 105	 142	 0.0001	 0.001	 0	 351	 449	 459	 0	 0	 1	-30	 30;
	 106	 116	 0.0021	 0.0135	 0.02548	 260	 312	 390	 0	 0	 1	-30	 30;
	 107	 159	 0.0024	 0.01189	 0.00301	 260	 312	 390	 0	 0	 1	-30	 30;
	 108	 147	 0.001	 0.0088	 0.0051	 260	 312	 390	 0	 0	 1	-30	 30;
	 108	 152	 0.0027	 0.0171	 0.0047	 260	 312	 390	 0	 0	 1	-30	 30;
	 108	 161	 0.0059	 0.0369	 0.01032	 260	 312	 390	 0	 0	 1	-30	 30;
	 110	 345	 0.0001	 0.01	 0	 166.48	 199.78	 249.72	 0	 0	 1	-30	 30;
	 111	 134	 0.0001	 0.001	 0	 144	 182	 182	 0	 0	 1	-30	 30;
	 111	 141	 0.01793	 0.07646	 0	 208	 264	 266	 0	 0	 1	-30	 30;
	 111	 156	 0.027	 0.11081	 0.02745	 190	 214	 245	 0	 0	 1	-30	 30;
	 112	 130	 0.00366	 0.02083	 0	 269	 349	 455	 0	 0	 1	-30	 30;
	 112	 154	 0.00154	 0.00788	 0.0022	 318	 349.8	 381.6	 0	 0	 1	-30	 30;
	 113	 156	 0.0145	 0.0587	 0.0153	 190	 214	 245	 0	 0	 1	-30	 30;
	 116	 146	 0.0015	 0.0097	 0.00262	 260	 312	 390	 0	 0	 1	-30	 30;
	 117	 370	 0.0001	 0.01	 0	 110	 121	 132	 0	 0	 1	-30	 30;
	 118	 145	 0.0001	 0.001	 0	 244	 244	 244	 0	 0	 1	-30	 30;
	 119	 130	 0.0102	 0.02743	 0.00669	 143	 143	 143	 0	 0	 1	-30	 30;
	 121	 153	 0.00291	 0.01178	 0.00301	 260	 312	 390	 0	 0	 1	-30	 30;
	 122	 128	 0.03	 0.15	 0	 260	 312	 390	 0	 0	 1	-30	 30;
	 125	 128	 0.03	 0.15	 0	 260	 312	 390	 0	 0	 1	-30	 30;
	 127	 144	 0.028	 0.1051	 0.0261	 260	 312	 390	 0	 0	 1	-30	 30;
	 129	 285	 0.0001	 0.01	 0	 144.14	 172.97	 216.21	 0	 0	 1	-30	 30;
	 130	 151	 0.01573	 0.06466	 0.01583	 272	 299.2	 326.4	 0	 0	 1	-30	 30;
	 133	 141	 0.00228	 0.01742	 0.00486	 343	 428	 449	 0	 0	 1	-30	 30;
	 137	 151	 0.00044	 0.00193	 0.00043	 173	 223	 223	 0	 0	 1	-30	 30;
	 138	 142	 0.0001	 0.001	 0	 351	 449	 459	 0	 0	 1	-30	 30;
	 138	 145	 0.0001	 0.001	 0	 351	 449	 459	 0	 0	 1	-30	 30;
	 141	 178	 0.0001	 0.01	 0	 175.93	 211.12	 263.89	 0	 0	 1	-30	 30;
	 142	 143	 0.006	 0.024	 0.0238	 190	 246	 247	 0	 0	 1	-30	 30;
	 144	 158	 0.0048	 0.018	 0.00446	 260	 312	 390	 0	 0	 1	-30	 30;
	 148	 249	 0.0001	 0.01	 0	 104.61	 125.53	 156.92	 0	 0	 1	-30	 30;
	 155	 159	 0.0197	 0.0973	 0.02482	 260	 312	 390	 0	 0	 1	-30	 30;
	 155	 160	 0.0063	 0.0393	 0.01082	 260	 312	 390	 0	 0	 1	-30	 30;
	 163	 167	 0.0001	 0.001	 0	 260	 312	 390	 0	 0	 1	-30	 30;
	 163	 174	 0.0001	 0.001	 0	 260	 312	 390	 0	 0	 1	-30	 30;
	 163	 188	 0.0161	 0.0714	 0.0192	 260	 312	 390	 0	 0	 1	-30	 30;
	 165	 180	 0.0006	 0.0028	 0.00739	 260	 312	 390	 0	 0	 1	-30	 30;
	 167	 181	 0.0001	 0.001	 0	 260	 312	 390	 0	 0	 1	-30	 30;
	 170	 178	 0.00157	 0.00575	 0.00168	 260	 312	 390	 0	 0	 1	-30	 30;
	 170	 224	 0.00492	 0.15	 0	 260	 312	 390	 0	 0	 1	-30	 30;
	 174	 217	 0.00754	 0.03457	 0.01039	 260	 312	 390	 0	 0	 1	-30	 30;
	 175	 178	 0.0001	 0.001	 0	 260	 312	 390	 0	 0	 1	-30	 30;
	 175	 222	 0.00464	 0.01237	 0.00342	 260	 312	 390	 0	 0	 1	-30	 30;
	 175	 224	 0.00167	 0.00613	 0.0018	 260	 312	 390	 0	 0	 1	-30	 30;
	 176	 202	 0.0173	 0.0773	 0.0201	 260	 312	 390	 0	 0	 1	-30	 30;
	 176	 214	 0.002	 0.009	 0.0023	 260	 312	 390	 0	 0	 1	-30	 30;
	 177	 183	 0.00756	 0.03468	 0.01042	 260	 312	 390	 0	 0	 1	-30	 30;
	 177	 188	 0.0267	 0.0693	 0.01681	 260	 312	 390	 0	 0	 1	-30	 30;
	 177	 217	 0.00416	 0.01909	 0.00573	 260	 312	 390	 0	 0	 1	-30	 30;
	 177	 227	 0.03	 0.15	 0.0556	 260	 312	 390	 0	 0	 1	-30	 30;
	 177	 234	 0.0078	 0.035	 0.0091	 260	 312	 390	 0	 0	 1	-30	 30;
	 178	 199	 0.02648	 0.12257	 0.03623	 260	 312	 390	 0	 0	 1	-30	 30;
	 178	 209	 0.0087	 0.05661	 0.01449	 260	 312	 390	 0	 0	 1	-30	 30;
	 178	 233	 0.00687	 0.01083	 0.00224	 260	 312	 390	 0	 0	 1	-30	 30;
	 179	 185	 0.03	 0.15	 0	 260	 312	 390	 0	 0	 1	-30	 30;
	 179	 207	 0.03	 0.15	 0	 260	 312	 390	 0	 0	 1	-30	 30;
	 179	 230	 0.03	 0.15	 0	 260	 312	 390	 0	 0	 1	-30	 30;
	 180	 188	 0.03	 0.148	 0.0385	 260	 312	 390	 0	 0	 1	-30	 30;
	 180	 209	 0.0266	 0.1185	 0.03081	 260	 312	 390	 0	 0	 1	-30	 30;
	 180	 227	 0.03	 0.15	 0.0501	 260	 312	 390	 0	 0	 1	-30	 30;
	 181	 191	 0.0155	 0.0652	 0.018	 260	 312	 390	 0	 0	 1	-30	 30;
	 181	 205	 0.0001	 0.001	 0	 260	 312	 390	 0	 0	 1	-30	 30;
	 183	 194	 0.0001	 0.001	 0	 260	 312	 390	 0	 0	 1	-30	 30;
	 184	 194	 0.0001	 0.001	 0	 260	 312	 390	 0	 0	 1	-30	 30;
	 184	 203	 0.0001	 0.001	 0	 260	 312	 390	 0	 0	 1	-30	 30;
	 184	 217	 0.0031	 0.0152	 0.00397	 260	 312	 390	 0	 0	 1	-30	 30;
	 185	 207	 0.0001	 0.001	 0	 260	 312	 390	 0	 0	 1	-30	 30;
	 187	 204	 0.03	 0.15	 0	 260	 312	 390	 0	 0	 1	-30	 30;
	 188	 192	 0.0282	 0.1297	 0.0335	 260	 312	 390	 0	 0	 1	-30	 30;
	 188	 216	 0.00012	 0.00196	 0.00061	 260	 312	 390	 0	 0	 1	-30	 30;
	 188	 217	 0.02	 0.0934	 0.0242	 260	 312	 390	 0	 0	 1	-30	 30;
	 188	 234	 0.008	 0.0358	 0.00934	 260	 312	 390	 0	 0	 1	-30	 30;
	 189	 191	 0.03	 0.15	 0.0476	 260	 312	 390	 0	 0	 1	-30	 30;
	 191	 199	 0.01357	 0.06226	 0.01871	 260	 312	 390	 0	 0	 1	-30	 30;
	 192	 205	 0.0001	 0.001	 0	 260	 312	 390	 0	 0	 1	-30	 30;
	 200	 212	 0.00384	 0.03843	 0.65114	 260	 312	 390	 0	 0	 1	-30	 30;
	 200	 215	 0.0037	 0.0367	 0.59677	 335	 368.5	 402	 0	 0	 1	-30	 30;
	 202	 227	 0.018	 0.0803	 0.0209	 260	 312	 390	 0	 0	 1	-30	 30;
	 203	 217	 0.0032	 0.0156	 0.00468	 260	 312	 390	 0	 0	 1	-30	 30;
	 204	 228	 0.03	 0.15	 0	 260	 312	 390	 0	 0	 1	-30	 30;
...
];

mpc_regionR1.gencost = [
%	2           startup     shutdown    n           c(n-1)...c0 
	 2	 0	 0	 3	 0.2322	 52.95	 1494;
	 2	 0	 0	 3	 0.000222	 0.2148	 5617;
	 2	 0	 0	 3	 0.1536	 62.38	 1078;
	 2	 0	 0	 3	 0.5897	 7.978	 3051;
	 2	 0	 0	 3	 0	 0.1769	 1168;
	 2	 0	 0	 3	 0	 0.8019	 1338;
	 2	 0	 0	 3	 0.1773	 74.14	 884.1;
	 2	 0	 0	 3	 0.01621	 25.22	 3534;
	 2	 0	 0	 3	 0.009644	 20.31	 1184;
	 2	 0	 0	 3	 0	 20.95	 2792;
	 2	 0	 0	 3	 0	 0.6824	 902.1;
	 2	 0	 0	 3	 0	 0.8034	 1169;
	 2	 0	 0	 3	 0	 1.228	 244.4;
	 2	 0	 0	 3	 0	 0.4794	 2113;
	 2	 0	 0	 3	 0.2147	 51.59	 1591;
	 2	 0	 0	 3	 0	 2.697	 12460;
	 2	 0	 0	 3	 0	 11.24	 533;
	 2	 0	 0	 3	 0.04786	 25.81	 4935;
	 2	 0	 0	 3	 0	 0.8279	 419.9;
	 2	 0	 0	 3	 0	 5.815	 116.2;
	 2	 0	 0	 3	 0	 2.76	 11760;
	 2	 0	 0	 3	 0.1639	 71.8	 1039;
	 2	 0	 0	 3	 0.1639	 71.8	 996.6;
	 2	 0	 0	 3	 0	 2.841	 11320;
	 2	 0	 0	 3	 0.1938	 63.9	 1819;
	 2	 0	 0	 3	 0.1568	 57.26	 2674;
	 2	 0	 0	 3	 0	 39.16	 2021;
	 2	 0	 0	 3	 0.008173	 5.677	 42460;
	 2	 0	 0	 3	 0	 21.36	 7967;
	 2	 0	 0	 3	 0	 1.229	 1062;
	 2	 0	 0	 3	 0	 1.244	 1114;
	 2	 0	 0	 3	 0.04161	 42.36	 439.5;
	 2	 0	 0	 3	 0.01903	 28.57	 779.8;
	 2	 0	 0	 3	 0	 2.776	 1335;
	 2	 0	 0	 3	 0.03549	 39.09	 490.3;
	 2	 0	 0	 3	 0.05048	 46.69	 382.2;
	 2	 0	 0	 3	 0.0111	 21.8	 1057;
	 2	 0	 0	 3	 0	 0.6514	 5838;
	 2	 0	 0	 3	 0	 0.8256	 4098;
	 2	 0	 0	 3	 0.03899	 37.24	 383.3;
	 2	 0	 0	 3	 0	 0.6199	 1043;
	 2	 0	 0	 3	 0	 2.056	 1207;
	 2	 0	 0	 3	 0	 1.075	 1041;
	 2	 0	 0	 3	 0	 24.83	 116.8;
	 2	 0	 0	 3	 0.01132	 15.48	 1237;
	 2	 0	 0	 3	 0	 0.5362	 1142;
	 2	 0	 0	 3	 0.2196	 7.394	 140.7;
	 2	 0	 0	 3	 0	 27.01	 123.9;
	 2	 0	 0	 3	 0	 0.8948	 1507;
	 2	 0	 0	 3	 0.000217	 0.244	 1570;
	 2	 0	 0	 3	 0	 1.388	 1184;
	 2	 0	 0	 3	 0	 1.305	 1215;
	 2	 0	 0	 3	 0	 0.5336	 1027;
	 2	 0	 0	 3	 0	 30.8	 84.57;
	 2	 0	 0	 3	 0	 1.456	 158.9;
	 2	 0	 0	 3	 0	 54.07	 155.9;
	 2	 0	 0	 3	 0	 2.414	 272.9;
	 2	 0	 0	 3	 0	 0.9716	 1045;
	 2	 0	 0	 3	 0.008412	 18.97	 1248;
	 2	 0	 0	 3	 0	 1.027	 1152;
	 2	 0	 0	 3	 0.008479	 19.04	 1278;
	 2	 0	 0	 3	 0.05448	 48.93	 113.1;
	 2	 0	 0	 3	 0	 5.668	 167.5;
	 2	 0	 0	 3	 0	 0.5766	 1191;
	 2	 0	 0	 3	 0	 16.43	 91.7;
	 2	 0	 0	 3	 0.08217	 41.99	 321.4;
	 2	 0	 0	 3	 0	 42.81	 0;
	 2	 0	 0	 3	 0.3774	 9.421	 170.4;
	 2	 0	 0	 3	 0	 59.98	 260.9;
	 2	 0	 0	 3	 0.09277	 3.452	 163.6;
	 2	 0	 0	 3	 0	 0.987	 954.6;
	 2	 0	 0	 3	 0.06251	 51.99	 362.3;
	 2	 0	 0	 3	 0.000173	 0.166	 112.7;
	 2	 0	 0	 3	 0	 17.71	 208.2;
	 2	 0	 0	 3	 0.04518	 44.23	 368;
	 2	 0	 0	 3	 0	 6.228	 135.7;
	 2	 0	 0	 3	 0	 5.787	 164.1;
	 2	 0	 0	 3	 0	 23.14	 163.8;
	 2	 0	 0	 3	 0.05979	 50.85	 301.6;
	 2	 0	 0	 3	 0	 0.07818	 228.3;
	 2	 0	 0	 3	 0	 48.44	 119.2;
	 2	 0	 0	 3	 0.06635	 37.69	 369.9;
	 2	 0	 0	 3	 0.01459	 17.58	 1055;
	 2	 0	 0	 3	 0	 0.3222	 2938;
	 2	 0	 0	 3	 0.03128	 33.38	 414.4;
	 2	 0	 0	 3	 0	 16.76	 75.73;
	 2	 0	 0	 3	 0	 14.4	 173.2;
	 2	 0	 0	 3	 0	 0.8523	 171.4;
	 2	 0	 0	 3	 0	 0.9524	 3146;
	 2	 0	 0	 3	 0	 1.428	 1093;
	 2	 0	 0	 3	 0	 0.6248	 1072;
	 2	 0	 0	 3	 0	 0.1427	 880.1;
	 2	 0	 0	 3	 0	 0.7257	 539.6;
	 2	 0	 0	 3	 0.000181	 0.2118	 363.8;
	 2	 0	 0	 3	 0	 0.4889	 1079;
	 2	 0	 0	 3	 0	 8.6	 95.43;
	 2	 0	 0	 3	 0	 11.2	 362.7;
	 2	 0	 0	 3	 0	 0.6745	 2811;
	 2	 0	 0	 3	 0	 26.36	 140.7;
	 2	 0	 0	 3	 0	 1.651	 3249;
	 2	 0	 0	 3	 0.1199	 0	 1149;
	 2	 0	 0	 3	 0	 3.327	 126.3;
	 2	 0	 0	 3	 0.000185	 0.2104	 1287;
	 2	 0	 0	 3	 0	 0.1821	 187.1;
	 2	 0	 0	 3	 0.01263	 16.65	 217.1;
	 2	 0	 0	 3	 0	 0.7746	 1207;
	 2	 0	 0	 3	 0	 0.4126	 1318;
	 2	 0	 0	 3	 0	 0.5516	 5356;
	 2	 0	 0	 3	 0	 16.74	 106.4;
	 2	 0	 0	 3	 0.163	 5.961	 219.2;
	 2	 0	 0	 3	 0.163	 5.961	 231.2;
	 2	 0	 0	 3	 0.163	 5.961	 201.2;
	 2	 0	 0	 3	 0	 1.839	 1451;
	 2	 0	 0	 3	 0	 21.39	 231.5;
	 2	 0	 0	 3	 0.000264	 0.2362	 4348;
	 2	 0	 0	 3	 0.01224	 16.1	 1165;
	 2	 0	 0	 3	 0	 1.317	 1262;
	 2	 0	 0	 3	 0	 29.94	 134.2;
	 2	 0	 0	 3	 0	 1.26	 806.2;
	 2	 0	 0	 3	 0	 17.42	 183;
	 2	 0	 0	 3	 0.0161	 26.27	 862.2;
	 2	 0	 0	 3	 0.01256	 16.31	 1141;
	 2	 0	 0	 3	 0	 22.63	 130.2;
	 2	 0	 0	 3	 0.007637	 18.28	 212.1;
];


% -------------------- mpc_regionR2 --------------------

mpc_regionR2.version = '2';
mpc_regionR2.baseMVA = 100.0000;
mpc_regionR2.bus = [
%	bus_i       type        Pd          Qd          Gs          Bs          area        Vm          Va          baseKV      zone        Vmax        Vmin        
	 1	 1	 29.07	 4.44	 0	 9.6299311366	 1	 0.9975	 0	 110	 21	 1.05	 0.945;
	 2	 1	 12.06	 2.77	 0	 9.08989831911	 1	 0.9975	 0	 110	 21	 1.05	 0.945;
	 3	 1	 30.33	 0.29	 0	 0	 1	 0.9975	 0	 110	 21	 1.05	 0.945;
	 4	 1	 18.04	 4.42	 0	 0	 1	 0.9975	 0	 110	 21	 1.05	 0.945;
	 5	 1	 44.69	 9	 0	 9.98995807068	 1	 0.9975	 0	 110	 21	 1.05	 0.945;
	 6	 1	 54.34	 10.7	 0	 0	 1	 0.9975	 0	 110	 21	 1.05	 0.945;
	 7	 1	 9.08	 1.62	 0	 2.75993246011	 1	 0.9975	 0	 110	 21	 1.05	 0.945;
	 8	 1	 0.09	-1.12	 0	 0	 1	 0.9975	 0	 110	 21	 1.05	 0.945;
	 9	 1	 11.37	 2.2	 0	 0	 1	 0.9975	 0	 110	 21	 1.05	 0.945;
	 10	 1	 65.6	 0.45	 0	 8.55994721972	 1	 0.9975	 0	 110	 21	 1.05	 0.945;
	 11	 1	 0.09	-0.49	 0	 0	 1	 0.9975	 0	 110	 21	 1.05	 0.945;
	 12	 1	 42.85	 8.92	 0	 28.8899674968	 1	 0.9975	 0	 110	 21	 1.05	 0.945;
	 13	 1	 16.78	 3.28	 0	 0	 1	 0.9975	 0	 110	 21	 1.05	 0.945;
	 14	 1	 39.07	 2.74	 0	 8.98881496952	 1	 0.9975	 0	 110	 21	 1.05	 0.945;
	 15	 1	 151.9	 14.81	 0	 0	 1	 0.9975	 0	 345	 21	 1.05	 0.945;
	 16	 1	 0	 0	 0	 0	 1	 0.9975	 0	 20	 21	 1.05	 0.945;
	 17	 1	 0	 0	 0	 0	 1	 0.9975	 0	 20	 21	 1.05	 0.945;
	 18	 1	 0	 0	 0	 0	 1	 0.9975	 0	 20	 21	 1.05	 0.945;
	 19	 1	 0	 0	 0	 0	 1	 0.9975	 0	 20	 21	 1.05	 0.945;
	 20	 2	 0	 0	 0	 0	 1	 0.9975	 0	 20	 21	 1.05	 0.945;
	 21	 1	 0	 0	 0	 0	 1	 0.9975	 0	 20	 21	 1.05	 0.945;
	 22	 1	 0	 0	 0	 0	 1	 0.9975	 0	 20	 21	 1.05	 0.945;
	 23	 2	 0	 0	 0	 0	 1	 0.9975	 0	 20	 21	 1.05	 0.945;
	 24	 1	 136.41	 3.73	 0	 0	 1	 0.9975	 0	 110	 21	 1.05	 0.945;
	 25	 1	 20.22	 6.17	 0	 0	 1	 0.9975	 0	 110	 21	 1.05	 0.945;
	 26	 1	 0.09	-12.68	 0	 0	 1	 0.9975	 0	 345	 21	 1.05	 0.945;
	 27	 1	 0	 0	 0	 0	 1	 0.9975	 0	 20	 21	 1.05	 0.945;
	 28	 1	 12.64	 3.8	 0	 0	 1	 0.9975	 0	 110	 21	 1.05	 0.945;
	 29	 1	 0.09	-0.84	 0	 0	 1	 0.9975	 0	 110	 21	 1.05	 0.945;
	 30	 1	 78.25	 17	 0	 43.3791530942	 1	 0.9975	 0	 110	 21	 1.05	 0.945;
	 31	 1	 11.03	 2.02	 0	 0	 1	 0.9975	 0	 110	 21	 1.05	 0.945;
	 32	 2	 13.21	 2.25	 0	 0	 1	 0.9975	 0	 110	 21	 1.05	 0.945;
	 33	 1	 12.29	 2.33	 0	 0	 1	 0.9975	 0	 110	 21	 1.05	 0.945;
	 34	 1	 0	 0	 0	 0	 1	 0.9975	 0	 20	 21	 1.05	 0.945;
	 35	 1	 0	 0	 0	 0	 1	 0.9975	 0	 20	 21	 1.05	 0.945;
	 36	 2	 0	 0	 0	 0	 1	 0.9975	 0	 20	 21	 1.05	 0.945;
	 37	 1	 0	 0	 0	 0	 1	 0.9975	 0	 20	 21	 1.05	 0.945;
	 38	 1	 0	 0	 0	 0	 1	 0.9975	 0	 20	 21	 1.05	 0.945;
	 39	 1	 65.39	 4.15	 0	-1.63609791155	 1	 0.9975	 0	 110	 21	 1.05	 0.945;
	 40	 1	 0	 0	 0	 0	 1	 0.9975	 0	 20	 21	 1.05	 0.945;
	 41	 1	 23.32	 5.54	 0	 13.5899568546	 1	 0.9975	 0	 110	 21	 1.05	 0.945;
	 42	 1	 23.66	 5.02	 0	 0	 1	 0.9975	 0	 110	 21	 1.05	 0.945;
	 43	 1	 12.84	 1.54	 0	 0	 1	 0.9975	 0	 110	 21	 1.05	 0.945;
	 44	 1	 4.47	-0.86	 0	 0	 1	 0.9975	 0	 345	 21	 1.05	 0.945;
	 45	 1	 52.96	 16.93	 0	 0	 1	 0.9975	 0	 110	 21	 1.05	 0.945;
	 46	 1	 0.09	-0.56	 0	 0	 1	 0.9975	 0	 110	 21	 1.05	 0.945;
	 47	 1	 11.49	 2.66	 0	 0	 1	 0.9975	 0	 110	 21	 1.05	 0.945;
	 48	 1	 0.09	-0.13	 0	 0	 1	 0.9975	 0	 110	 21	 1.05	 0.945;
	 49	 1	 0.18	-0.35	 0	 0	 1	 0.9975	 0	 110	 21	 1.05	 0.945;
	 50	 1	 0.09	-11.06	 0	 0	 1	 0.9975	 0	 345	 21	 1.05	 0.945;
	 51	 1	 7.77	 0.85	 0	 0	 1	 0.9975	 0	 110	 21	 1.05	 0.945;
	 52	 1	 0.09	-0.27	 0	 0	 1	 0.9975	 0	 110	 21	 1.05	 0.945;
	 53	 1	 40.44	 8.58	 0	 0	 1	 0.9975	 0	 110	 21	 1.05	 0.945;
	 54	 1	 12.52	 2.78	 0	 0	 1	 0.9975	 0	 110	 21	 1.05	 0.945;
	 55	 1	 0.1	-6.62	 0	 0	 1	 0.9975	 0	 345	 21	 1.05	 0.945;
	 56	 1	 35.38	 10.49	 0	 27.8397476758	 1	 0.9975	 0	 110	 21	 1.05	 0.945;
	 57	 1	 1.25	-1.19	 0	-5.01352035239e-05	 1	 0.9975	 0	 110	 21	 1.05	 0.945;
	 58	 1	 0	 0	 0	 0	 1	 0.9975	 0	 20	 21	 1.05	 0.945;
	 59	 1	 0.09	-5.7	 0	 0	 1	 0.9975	 0	 110	 21	 1.05	 0.945;
	 60	 1	 17.7	 0.64	 0	 0.000288637878187	 1	 0.9975	 0	 110	 21	 1.05	 0.945;
	 61	 1	 8.05	 1.4	 0	 0	 1	 0.9975	 0	 110	 21	 1.05	 0.945;
	 62	 1	 25.62	 5.71	 0	 0	 1	 0.9975	 0	 110	 21	 1.05	 0.945;
	 63	 1	 0	 0	 0	 0	 1	 0.9975	 0	 20	 21	 1.05	 0.945;
	 64	 1	 12.41	 2.19	 0	 11.8798231971	 1	 0.9975	 0	 110	 21	 1.05	 0.945;
	 65	 1	 23.32	 4.86	 0	 0	 1	 0.9975	 0	 110	 21	 1.05	 0.945;
	 66	 1	 26.2	 6.2	 0	 0	 1	 0.9975	 0	 110	 21	 1.05	 0.945;
	 67	 1	 0.09	-4.24	 0	 0	 1	 0.9975	 0	 345	 21	 1.05	 0.945;
	 68	 1	 23.55	 5.71	 0	 0	 1	 0.9975	 0	 110	 21	 1.05	 0.945;
	 69	 1	 91.91	 22.52	 0	 0	 1	 0.9975	 0	 110	 21	 1.05	 0.945;
	 70	 1	 0.09	-0.32	 0	 0	 1	 0.9975	 0	 110	 21	 1.05	 0.945;
	 71	 1	 40.44	 8.3	 0	 0	 1	 0.9975	 0	 110	 21	 1.05	 0.945;
	 72	 1	 0.62	-0.02	 0	 0	 1	 0.9975	 0	 110	 21	 1.05	 0.945;
	 73	 1	 0.11	-7.67	 0	 0	 1	 0.9975	 0	 345	 21	 1.05	 0.945;
	 74	 1	 0.09	-1.89	 0	 0	 1	 0.9975	 0	 345	 21	 1.05	 0.945;
	 75	 2	 0	 0	 0	 0	 1	 0.9975	 0	 20	 21	 1.05	 0.945;
	 76	 1	 0	 0	 0	 0	 1	 0.9975	 0	 20	 21	 1.05	 0.945;
	 77	 1	 0	 0	 0	 0	 1	 0.9975	 0	 500	 21	 1.05	 0.945;
	 78	 1	 2.94	-0.02	 0	 0	 1	 0.9975	 0	 110	 21	 1.05	 0.945;
	 79	 2	 0	 0	 0	 0	 1	 0.9975	 0	 20	 21	 1.05	 0.945;
	 80	 1	 18.38	 4.02	 0	 0	 1	 0.9975	 0	 110	 21	 1.05	 0.945;
	 81	 1	 6.21	 0.94	 0	 3.25978487705	 1	 0.9975	 0	 110	 21	 1.05	 0.945;
	 82	 1	 256.96	 61.28	 0	 0	 1	 0.9975	 0	 110	 21	 1.05	 0.945;
	 83	 1	-0.67	-1.03	 0	 0	 1	 0.9975	 0	 110	 21	 1.05	 0.945;
	 84	 1	 18.38	 4.02	 0	 0	 1	 0.9975	 0	 110	 21	 1.05	 0.945;
	 85	 1	 12.06	 2.47	 0	 5.99990865445	 1	 0.9975	 0	 110	 21	 1.05	 0.945;
	 86	 1	 120.91	 7.03	 0	 0	 1	 0.9975	 0	 110	 21	 1.05	 0.945;
	 87	 1	 59.52	 11.49	 0	 43.1099634873	 1	 0.9975	 0	 110	 21	 1.05	 0.945;
	 88	 1	 22.17	 2.31	 0	 0	 1	 0.9975	 0	 110	 21	 1.05	 0.945;
	 89	 1	 0.09	-3.23	 0	 0	 1	 0.9975	 0	 110	 21	 1.05	 0.945;
	 90	 1	 85.08	 6.53	 0	 20.3399749926	 1	 0.9975	 0	 110	 21	 1.05	 0.945;
	 91	 1	 0.09	-4.68	 0	 0	 1	 0.9975	 0	 345	 21	 1.05	 0.945;
	 92	 1	 0.09	-3.13	 0	 0	 1	 0.9975	 0	 345	 21	 1.05	 0.945;
	 93	 1	 5.05	 0.36	 0	 0	 1	 0.9975	 0	 110	 21	 1.05	 0.945;
	 94	 1	 46.65	 10.36	 0	 0	 1	 0.9975	 0	 110	 21	 1.05	 0.945;
	 95	 1	 12.64	 2.4	 0	 0	 1	 0.9975	 0	 110	 21	 1.05	 0.945;
	 96	 1	 23.32	 5.58	 0	 0	 1	 0.9975	 0	 110	 21	 1.05	 0.945;
	 97	 1	 147.7	 21.09	 0	 0	 1	 0.9975	 0	 110	 21	 1.05	 0.945;
	 98	 1	 0.09	-0.65	 0	 0	 1	 0.9975	 0	 110	 21	 1.05	 0.945;
	 99	 1	 3.84	-0.17	 0	 0	 1	 0.9975	 0	 110	 21	 1.05	 0.945;
	 100	 1	 9.65	 1.85	 0	 0	 1	 0.9975	 0	 110	 21	 1.05	 0.945;
	 101	 1	 27.81	 4.82	 0	 0	 1	 0.9975	 0	 110	 21	 1.05	 0.945;
	 102	 1	 31.25	 7.1	 0	 15.2082913577	 1	 0.9975	 0	 110	 21	 1.05	 0.945;
	 103	 2	 0	 0	 0	 0	 1	 0.9975	 0	 500	 21	 1.05	 0.945;
	 104	 1	 0.09	-16.35	 0	 0	 1	 0.9975	 0	 500	 21	 1.05	 0.945;
	 105	 2	 0	 0	 0	 0	 1	 0.9975	 0	 20	 21	 1.05	 0.945;
	 106	 1	-0.5	-1.36	 0	 0	 1	 0.9975	 0	 110	 21	 1.05	 0.945;
	 107	 1	 0.1	-30.86	 0	 0	 1	 0.9975	 0	 500	 21	 1.05	 0.945;
	 108	 1	 0.09	-3.35	 0	 0	 1	 0.9975	 0	 345	 21	 1.05	 0.945;
	 109	 2	 0	 0	 0	 0	 1	 0.9975	 0	 345	 21	 1.05	 0.945;
	 110	 1	 0.1	-1.54	 0	 0	 1	 0.9975	 0	 345	 21	 1.05	 0.945;
	 111	 1	 12.18	 1.64	 0	 0	 1	 0.9975	 0	 110	 21	 1.05	 0.945;
	 112	 1	 37.92	 10.03	 0	 0	 1	 0.9975	 0	 110	 21	 1.05	 0.945;
	 113	 1	 0.15	-61.32	 0	 0	 1	 0.9975	 0	 500	 21	 1.05	 0.945;
	 114	 1	 19.3	 4.68	 0	 0	 1	 0.9975	 0	 110	 21	 1.05	 0.945;
	 115	 1	 15.16	 2.81	 0	 5.64063206281	 1	 0.9975	 0	 110	 21	 1.05	 0.945;
	 116	 2	 0	 0	 0	 0	 1	 0.9975	 0	 20	 21	 1.05	 0.945;
	 117	 1	 0.09	-0.41	 0	 0	 1	 0.9975	 0	 345	 21	 1.05	 0.945;
	 118	 1	 23.81	-2.62	 0	 0	 1	 0.9975	 0	 110	 21	 1.05	 0.945;
	 119	 1	 0.09	-3.92	 0	 0	 1	 0.9975	 0	 345	 21	 1.05	 0.945;
	 120	 1	 0	 0	 0	 0	 1	 0.9975	 0	 20	 21	 1.05	 0.945;
	 121	 1	 9.77	 1.26	 0	 0	 1	 0.9975	 0	 110	 21	 1.05	 0.945;
	 122	 1	 31.6	 7.39	 0	 14.7592826403	 1	 0.9975	 0	 110	 21	 1.05	 0.945;
	 123	 1	 7.93	 1.35	 0	 0	 1	 0.9975	 0	 110	 21	 1.05	 0.945;
	 124	 1	 19.64	-0.17	 0	 0	 1	 0.9975	 0	 110	 21	 1.05	 0.945;
	 125	 1	 79.51	 15.84	 0	 0	 1	 0.9975	 0	 110	 21	 1.05	 0.945;
	 126	 1	 0.09	-21.48	 0	 0	 1	 0.9975	 0	 500	 21	 1.05	 0.945;
	 127	 1	 0.09	-2.45	 0	 0	 1	 0.9975	 0	 345	 21	 1.05	 0.945;
	 128	 1	 12.52	 2.08	 0	 0	 1	 0.9975	 0	 110	 21	 1.05	 0.945;
	 129	 1	 0	 0	 0	 0	 1	 0.9975	 0	 20	 21	 1.05	 0.945;
	 130	 1	 0	 0	 0	 0	 1	 0.9975	 0	 20	 21	 1.05	 0.945;
	 131	 1	 0.09	-3.39	 0	 0	 1	 0.9975	 0	 345	 21	 1.05	 0.945;
	 132	 1	 12.52	 2.65	 0	 0	 1	 0.9975	 0	 110	 21	 1.05	 0.945;
	 133	 2	 0	 0	 0	 0	 1	 0.9975	 0	 345	 21	 1.05	 0.945;
	 134	 1	 19.19	 4.2	 0	 0	 1	 0.9975	 0	 110	 21	 1.05	 0.945;
	 135	 1	 10.68	 2.54	 0	 0	 1	 0.9975	 0	 110	 21	 1.05	 0.945;
	 136	 1	 61.83	 12.59	 0	 0	 1	 0.9975	 0	 110	 21	 1.05	 0.945;
	 137	 1	 0.2	-0.89	 0	 0	 1	 0.9975	 0	 500	 21	 1.05	 0.945;
	 138	 1	 5.18	-1.35	 0	 0	 1	 0.9975	 0	 110	 21	 1.05	 0.945;
	 139	 1	 0.09	-3.66	 0	 0	 1	 0.9975	 0	 345	 21	 1.05	 0.945;
	 140	 1	 4.59	 0.59	 0	 1.45995352724	 1	 0.9975	 0	 110	 21	 1.05	 0.945;
	 141	 2	 0	 0	 0	 0	 1	 0.9975	 0	 20	 21	 1.05	 0.945;
	 142	 1	 17.47	 2.48	 0	 4.47996621215	 1	 0.9975	 0	 110	 21	 1.05	 0.945;
	 143	 1	 12.86	 2.79	 0	 0	 1	 0.9975	 0	 110	 21	 1.05	 0.945;
	 144	 1	 0	 0	 0	 0	 1	 0.9975	 0	 20	 21	 1.05	 0.945;
	 145	 1	 0.09	-5.3	 0	 0	 1	 0.9975	 0	 345	 21	 1.05	 0.945;
	 146	 2	 0.09	-9.88	 0	-10.774	 1	 0.9975	 0	 345	 21	 1.05	 0.945;
	 147	 1	 2.05	 0	 0	 0	 1	 0.9975	 0	 110	 21	 1.05	 0.945;
	 148	 1	 12.75	 0.21	 0	 0	 1	 0.9975	 0	 110	 21	 1.05	 0.945;
	 149	 2	 45.49	 7.57	 0	 11.387	 1	 0.9975	 0	 110	 21	 1.05	 0.945;
	 150	 1	 27.12	 6.24	 0	 0	 1	 0.9975	 0	 110	 21	 1.05	 0.945;
	 151	 2	 0	 0	 0	 0	 1	 0.9975	 0	 500	 21	 1.05	 0.945;
	 152	 1	 2.64	 0.33	 0	 0	 1	 0.9975	 0	 110	 21	 1.05	 0.945;
	 153	 1	 8.04	-0.14	 0	 0	 1	 0.9975	 0	 110	 21	 1.05	 0.945;
	 154	 1	 0	 0	 0	 0	 1	 0.9975	 0	 20	 21	 1.05	 0.945;
	 155	 1	 0.21	-6.68	 0	 0	 1	 0.9975	 0	 345	 21	 1.05	 0.945;
	 156	 1	 0.19	-9.53	 0	 0	 1	 0.9975	 0	 500	 21	 1.05	 0.945;
	 157	 1	 58.03	 12.66	 0	 14.8498902418	 1	 0.9975	 0	 110	 21	 1.05	 0.945;
	 158	 1	 39.07	 8.72	 0	 0	 1	 0.9975	 0	 110	 21	 1.05	 0.945;
	 159	 1	 0.09	-4.2	 0	 0	 1	 0.9975	 0	 345	 21	 1.05	 0.945;
	 160	 1	 54.11	 13.05	 0	 29.6024862001	 1	 0.9975	 0	 110	 21	 1.05	 0.945;
	 161	 1	-0.68	-6.09	 0	 0	 1	 0.9975	 0	 345	 21	 1.05	 0.945;
	 162	 1	 89.62	 22.73	 0	 0	 1	 0.9975	 0	 110	 21	 1.05	 0.945;
	 163	 1	 26.54	 6.41	 0	 0	 1	 0.9975	 0	 110	 21	 1.05	 0.945;
	 164	 1	 1.34	-0.08	 0	 0	 1	 0.9975	 0	 110	 21	 1.05	 0.945;
	 165	 1	 0.09	-0.23	 0	 0	 1	 0.9975	 0	 110	 21	 1.05	 0.945;
	 166	 1	 21.48	 3.78	 0	 0	 1	 0.9975	 0	 110	 21	 1.05	 0.945;
	 167	 1	 14.36	 2.94	 0	 8.99989315924	 1	 0.9975	 0	 110	 21	 1.05	 0.945;
	 168	 1	 18.27	 4.01	 0	 0	 1	 0.9975	 0	 110	 21	 1.05	 0.945;
	 169	 2	 0	 0	 0	 0	 1	 0.9975	 0	 20	 21	 1.05	 0.945;
	 170	 1	 0	 0	 0	 0	 1	 0.9975	 0	 20	 21	 1.05	 0.945;
	 171	 1	 0	 0	 0	 0	 1	 0.9975	 0	 20	 21	 1.05	 0.945;
	 172	 2	 0	 0	 0	 0	 1	 0.9975	 0	 20	 21	 1.05	 0.945;
	 173	 1	 0	 0	 0	 0	 1	 0.9975	 0	 20	 21	 1.05	 0.945;
	 174	 1	 8.05	 1.29	 0	 0	 1	 0.9975	 0	 110	 21	 1.05	 0.945;
	 175	 1	 0	 0	 0	 0	 1	 0.9975	 0	 500	 21	 1.05	 0.945;
	 176	 1	 0	 0	 0	 0	 1	 0.9975	 0	 20	 21	 1.05	 0.945;
	 177	 1	 0	 0	 0	 0	 1	 0.9975	 0	 20	 21	 1.05	 0.945;
	 178	 1	 6.32	 1.4	 0	-4.20216259516e-05	 1	 0.9975	 0	 110	 21	 1.05	 0.945;
	 179	 1	 0.09	-0.97	 0	 0	 1	 0.9975	 0	 345	 21	 1.05	 0.945;
	 180	 1	 18.96	 5.21	 0	 0	 1	 0.9975	 0	 110	 21	 1.05	 0.945;
	 181	 1	 4.59	 0.64	 0	 0	 1	 0.9975	 0	 110	 21	 1.05	 0.945;
	 182	 1	 0.09	-6.04	 0	 0	 1	 0.9975	 0	 345	 21	 1.05	 0.945;
	 183	 1	 0.09	-2.58	 0	 0	 1	 0.9975	 0	 110	 21	 1.05	 0.945;
	 184	 1	 6.09	 0.94	 0	 0	 1	 0.9975	 0	 110	 21	 1.05	 0.945;
	 185	 1	 0	 0	 0	 0	 1	 0.9975	 0	 20	 21	 1.05	 0.945;
	 186	 2	 0	 0	 0	 0	 1	 0.9975	 0	 20	 21	 1.05	 0.945;
	 187	 1	 0	 0	 0	 0	 1	 0.9975	 0	 20	 21	 1.05	 0.945;
	 188	 1	 0	 0	 0	 0	 1	 0.9975	 0	 20	 21	 1.05	 0.945;
	 189	 1	 32.17	 6.73	 0	 0	 1	 0.9975	 0	 110	 21	 1.05	 0.945;
	 190	 1	 0.09	-3.85	 0	 0	 1	 0.9975	 0	 345	 21	 1.05	 0.945;
	 191	 1	 37.92	 9.47	 0	 28.0798858031	 1	 0.9975	 0	 110	 21	 1.05	 0.945;
	 192	 1	 0.09	-0.7	 0	 0	 1	 0.9975	 0	 110	 21	 1.05	 0.945;
	 193	 1	 0.98	-23.37	 0	 0	 1	 0.9975	 0	 345	 21	 1.05	 0.945;
	 194	 1	 0.09	-25.12	 0	 0	 1	 0.9975	 0	 500	 21	 1.05	 0.945;
	 195	 1	 0.09	-1.22	 0	 0	 1	 0.9975	 0	 110	 21	 1.05	 0.945;
	 196	 1	 0.09	-0.46	 0	 0	 1	 0.9975	 0	 110	 21	 1.05	 0.945;
	 197	 1	 0	 0	 0	 0	 1	 0.9975	 0	 20	 21	 1.05	 0.945;
	 198	 1	-37.69	 1.82	 0	 0	 1	 0.9975	 0	 110	 21	 1.05	 0.945;
	 199	 1	 61.81	 13.22	 0	 0	 1	 0.9975	 0	 110	 21	 1.05	 0.945;
	 200	 1	 75.72	 1.29	 0	 0	 1	 0.9975	 0	 110	 21	 1.05	 0.945;
...
];

mpc_regionR2.gen = [
%	bus         Pg          Qg          Qmax        Qmin        Vg          mBase       status      Pmax        Pmin        Pc1         Pc2         Qc1min      Qc1max      Qc2min      Qc2max      ramp_agc    ramp_10     ramp_30     ramp_q      apf         
	 19	 0	 0	 49	-49	 0.9975	 300	 0	 97	 34.01;
	 20	 122.836	 0	 108	-108	 0.9975	 300	 1	 215	 30.672;
	 22	 0	 0	 23.77	-23.77	 0.9975	 100	 0	 8	 22.43;
	 23	 50.6075	 0	 45	-45	 0.9975	 100	 1	 90	 11.215;
	 27	 0	 0	 31.804	-31.804	 0.9975	 100	 0	 39	 7.255;
	 32	 107	 0	 500	-500	 0.9975	 1600	 1	 213	 1;
	 34	 0	 0	 36.6	-12	 0.9975	 100	 0	 23	 10.095;
	 35	 0	 0	 36.6	-8	 0.9975	 100	 0	 15	 10.095;
	 36	 70.5475	 0	 66	-66	 0.9975	 100	 1	 131	 10.095;
	 37	 0	 0	 111	-111	 0.9975	 100	 0	 222	 10.095;
	 40	 0	 0	 112	-112	 0.9975	 100	 0	 224	 13.41;
	 58	 0	 0	 60	-60	 0.9975	 100	 0	 120	 6.225;
	 63	 0	 0	 147	-147	 0.9975	 100	 0	 294	 7.835;
	 75	 111.505	 0	 108	-108	 0.9975	 100	 1	 215	 8.01;
	 76	 0	 0	 32.634	-32.634	 0.9975	 300	 0	 23	 87.67;
	 77	 0	 0	 90.38	-90.38	 0.9975	 100	 0	 44	 8.294;
	 79	 84.6075	 0	 79	-79	 0.9975	 100	 1	 158	 11.215;
	 103	 35.7205	 0	 105.042	-105.042	 0.9975	 100	 1	 63	 8.441;
	 105	 164.6275	 0	 161	-161	 0.9975	 100	 1	 322	 7.255;
	 109	 197.2795	 0	 194	-194	 0.9975	 100	 1	 387	 7.559;
	 116	 56.94425	 0	 53	-53	 0.9975	 100	 1	 106	 7.8885;
	 120	 0	 0	 78	-78	 0.9975	 100	 0	 156	 10.155;
	 129	 0	 0	 106	-106	 0.9975	 700	 0	 211	 100;
	 130	 0	 0	 133	-133	 0.9975	 800	 0	 265	 100;
	 133	 275.5	 0	 275	-275	 0.9975	 100	 1	 550	 1;
	 141	 80	 0	 55	-55	 0.9975	 500	 1	 110	 50;
	 144	 0	 0	 24.536	-24.536	 0.9975	 100	 0	 9	 5.88;
	 146	 154.5	 0	 154	-154	 0.9975	 100	 1	 308	 1;
	 149	 97	 0	 97	-97	 0.9975	 100	 1	 193	 1;
	 151	 383.16175	 0	 379	-379	 0.9975	 100	 1	 758	 8.3235;
	 154	 0	 0	 56.281	-56.281	 0.9975	 500	 0	 95	 50;
	 169	 254.80125	 0	 252	-252	 0.9975	 100	 1	 504	 5.6025;
	 170	 0	 0	 95	-95	 0.9975	 100	 0	 190	 5.6025;
	 171	 0	 0	 191	-191	 0.9975	 100	 0	 381	 6.225;
	 172	 157.03825	 0	 153	-153	 0.9975	 100	 1	 305	 9.0765;
	 173	 0	 0	 36.6	-9.902	 0.9975	 100	 0	 18	 5.6025;
	 175	 0	 0	 97.356	-97.356	 0.9975	 100	 0	 48	 7.8235;
	 176	 0	 0	 81	-81	 0.9975	 100	 0	 161	 10.105;
	 177	 0	 0	 232	-232	 0.9975	 100	 0	 463	 10.095;
	 185	 0	 0	 56.281	-56.281	 0.9975	 500	 0	 59	 50;
	 186	 38.61325	 0	 37	-37	 0.9975	 100	 1	 74	 3.2265;
	 187	 0	 0	 71	-71	 0.9975	 100	 0	 141	 10.31;
	 188	 0	 0	 79	-79	 0.9975	 100	 0	 158	 10.31;
	 197	 0	 0	 120	-120	 0.9975	 100	 0	 240	 5.88;
	 204	 0	 0	 420	-420	 0.9975	 500	 0	 839	 50;
	 209	 23.81825	-33	 300	-366	 0.9975	 1600	 1	 40	 7.6365;
	 210	 0	 0	 90	-90	 0.9975	 100	 0	 180	 8.465;
	 211	 227.1925	 0	 221	-221	 0.9975	 100	 1	 441	 13.385;
	 212	 102.1925	 0	 96	-96	 0.9975	 100	 1	 191	 13.385;
	 222	 0	 0	 13.402	-13.402	 0.9975	 100	 0	 17	 11.205;
	 223	 0	 0	 24	-24	 0.9975	 100	 0	 48	 10.0845;
	 224	 55.04225	 0	 50	-50	 0.9975	 100	 1	 100	 10.0845;
	 227	 0	 0	 96	-96	 0.9975	 100	 0	 191	 7.835;
	 239	 0	 0	 276	-276	 0.9975	 300	 0	 551	 33.63;
	 244	 0	 0	 88	-88	 0.9975	 100	 0	 175	 10.915;
	 245	 0	 0	 106	-106	 0.9975	 100	 0	 212	 11.215;
	 246	 0	 0	 36.6	-5.74	 0.9975	 100	 0	 6	 22.43;
	 247	 0	 0	 11.1	-11.1	 0.9975	 100	 0	 10	 21.83;
	 248	 0	 0	 129	-129	 0.9975	 100	 0	 257	 9.8235;
	 249	 138.9575	 0	 134	-134	 0.9975	 100	 1	 267	 10.915;
	 250	 0	 0	 49	-49	 0.9975	 100	 0	 97	 10.095;
	 251	 0	 0	 39	-39	 0.9975	 100	 0	 77	 10.095;
	 259	 320.54325	 0	 320	-320	 0.9975	 100	 1	 639	 2.0865;
	 263	 0	 0	 21	-21	 0.9975	 100	 0	 41	 8.425;
	 264	 0	 0	 55	-55	 0.9975	 100	 0	 110	 11.205;
	 265	 0	 0	 182	-182	 0.9975	 100	 0	 363	 13.41;
	 266	 29.54225	 0	 25	-25	 0.9975	 100	 1	 49	 10.0845;
	 267	 0	 0	 62	-62	 0.9975	 100	 0	 123	 11.205;
	 272	 0	 0	 95.526	-95.526	 0.9975	 100	 0	 5	 15.353;
	 272	 229.5	 0	 229	-229	 0.9975	 100	 1	 458	 1;
	 281	 235.5	 0	 211	-211	 0.9975	 600	 1	 421	 50;
	 282	 0	 0	 109.8	-109.8	 0.9975	 100	 0	 187	 8.8235;
	 289	 270.397	 0	 267	-267	 0.9975	 100	 1	 533	 7.794;
	 289	 542	 0	 550	-550	 0.9975	 100	 1	 1044	 40;
	 326	 0	 0	 48	-48	 0.9975	 300	 0	 95	 33.665;
	 327	 181.8325	 0	 165	-165	 0.9975	 300	 1	 330	 33.665;
	 337	 174.5	 0	 174	-174	 0.9975	 100	 1	 348	 1;
	 340	 0	 0	 36.6	-17	 0.9975	 100	 0	 33	 7.835;
	 343	 113.2125	 0	 109	-109	 0.9975	 100	 1	 218	 8.425;
	 357	 0	 0	 62	-62	 0.9975	 100	 0	 124	 13.41;
	 359	 74.0345	 0	 68	-68	 0.9975	 100	 1	 136	 12.069;
	 366	 291.08625	 0	 289	-289	 0.9975	 100	 1	 578	 4.1725;
	 377	 110.6275	 0	 107	-107	 0.9975	 100	 1	 214	 7.255;
	 392	 0	 0	 143.247	-143.247	 0.9975	 600	 0	 49	 100;
	 394	 222.6075	 0	 217	-217	 0.9975	 100	 1	 434	 11.215;
	 397	 71.6125	 0	 69	-69	 0.9975	 100	 1	 137	 6.225;
	 398	 0	 0	 68	-68	 0.9975	 100	 0	 135	 8.01;
	 399	 0	 0	 17.664	-17.664	 0.9975	 100	 0	 11	 8.01;
	 400	 0	 0	 166	-166	 0.9975	 100	 0	 332	 8.01;
	 401	 0	 0	 17.664	-17.664	 0.9975	 100	 0	 30	 8.01;
	 402	 0	 0	 37	-37	 0.9975	 100	 0	 73	 7.209;
	 405	 0	 0	 99	-99	 0.9975	 100	 0	 198	 13.655;
	 406	 0	 0	 36.6	-36.6	 0.9975	 100	 0	 48	 13.655;
	 407	 167.14475	 0	 161	-161	 0.9975	 100	 1	 322	 12.2895;
	 430	 71.2425	 5.1	 73.2	-63	 0.9975	 200	 1	 125	 17.485;
	 431	 0	 0	 73.2	-8	 0.9975	 200	 0	 15	 34.97;
	 432	 0	 0	 73.2	-57	 0.9975	 200	 0	 113	 17.485;
	 436	 0	 0	 77	-77	 0.9975	 100	 0	 153	 10.725;
	 443	 3	 0	 33.333	-33.333	 0.9975	 100	 1	 5	 1;
	 444	 0	 0	 545	-545	 0.9975	 100	 0	 1090	 6.4845;
	 445	 58.74225	 0	 56	-56	 0.9975	 100	 1	 111	 6.4845;
	 446	 0	 0	 155	-155	 0.9975	 100	 0	 310	 6.4845;
	 447	 141.24225	 0	 138	-138	 0.9975	 100	 1	 276	 6.4845;
	 448	 160.24225	 0	 157	-157	 0.9975	 100	 1	 314	 6.4845;
	 449	 0	 0	 81	-81	 0.9975	 100	 0	 161	 7.205;
	 450	 0	 0	 23.743	-23.743	 0.9975	 100	 0	 20	 10.105;
	 451	 92.04725	 0	 88	-88	 0.9975	 100	 1	 175	 9.0945;
	 452	 0	 0	 91	-91	 0.9975	 300	 0	 181	 33.665;
	 461	 0	 0	 89.92	-89.92	 0.9975	 100	 0	 52	 7.7355;
	 471	 198.5	 0	 550	-550	 0.9975	 100	 1	 396	 1;
	 472	 0	 0	 168	-168	 0.9975	 200	 0	 335	 27.535;
	 473	 0	 0	 15.459	-15.459	 0.9975	 200	 0	 26	 55.07;
	 474	 104.39075	 0	 92	-92	 0.9975	 200	 1	 184	 24.7815;
	 475	 0	 0	 54	-54	 0.9975	 200	 0	 108	 27.535;
	 476	 111.5	 0	 111	-111	 0.9975	 100	 1	 222	 1;
	 478	 0	 0	 38.84	-38.84	 0.9975	 100	 0	 15	 3.121;
];

mpc_regionR2.branch = [
%	fbus        tbus        r           x           b           rateA       rateB       rateC       ratio       angle       status      angmin      angmax      
	 1	 57	 0.03	 0.08537	 0	 43.74	 52.48	 65.6	 0	 0	 1	-30	 30;
	 1	 300	 0.02813	 0.09701	 0	 36.73	 44.07	 55.09	 0	 0	 1	-30	 30;
	 1	 373	 0.03	 0.14924	 0	 81.37	 97.65	 122.06	 0	 0	 1	-30	 30;
	 1	 441	 0.03	 0.12309	 0	 43.64	 52.37	 65.47	 0	 0	 1	-30	 30;
	 2	 167	 0.01847	 0.0418	 0	 42.76	 51.31	 64.14	 0	 0	 1	-30	 30;
	 2	 352	 0.01133	 0.02364	 0	 55.55	 66.66	 83.33	 0	 0	 1	-30	 30;
	 3	 271	 0.02632	 0.04439	 0	 50	 60	 90	 0	 0	 1	-30	 30;
	 3	 302	 0.02419	 0.04147	 0	 44.9	 53.88	 67.35	 0	 0	 1	-30	 30;
	 3	 302	 0.02472	 0.0407	 0	 44.95	 53.94	 67.42	 0	 0	 1	-30	 30;
	 4	 358	 0.00489	 0.01827	 0	 29.14	 34.97	 43.71	 0	 0	 1	-30	 30;
	 4	 415	 0.00679	 0.01418	 0	 50	 60	 90	 0	 0	 1	-30	 30;
	 5	 12	 0.03	 0.06991	 0	 64	 70.4	 76.8	 0	 0	 1	-30	 30;
	 5	 275	 0.02817	 0.05426	 0	 106	 116.6	 127.2	 0	 0	 1	-30	 30;
	 6	 86	 0.0196	 0.06844	 0	 52.11	 62.53	 78.17	 0	 0	 1	-30	 30;
	 6	 86	 0.022	 0.06039	 0	 57.72	 69.26	 86.58	 0	 0	 1	-30	 30;
	 6	 163	 0.02244	 0.06948	 0	 50	 60	 90	 0	 0	 1	-30	 30;
	 6	 163	 0.0198	 0.0709	 0	 50	 60	 90	 0	 0	 1	-30	 30;
	 6	 292	 0.01343	 0.06824	 0	 50	 60	 90	 0	 0	 1	-30	 30;
	 6	 311	 0.03	 0.09934	 0	 133	 146.3	 159.6	 0	 0	 1	-30	 30;
	 6	 318	 0.01473	 0.04305	 0	 57.51	 69.02	 86.27	 0	 0	 1	-30	 30;
	 6	 390	 0.03	 0.12366	 0	 59.25	 71.1	 88.87	 0	 0	 1	-30	 30;
	 6	 440	 0.03	 0.13688	 0	 31.89	 38.27	 47.84	 0	 0	 1	-30	 30;
	 7	 207	 0.03	 0.0956	 0	 39.51	 47.41	 59.26	 0	 0	 1	-30	 30;
	 7	 342	 0.02335	 0.04191	 0	 44	 48.4	 52.8	 0	 0	 1	-30	 30;
	 8	 46	 0.00937	 0.0357	 0	 36.03	 43.24	 54.05	 0	 0	 1	-30	 30;
	 8	 153	 0.02842	 0.08657	 0	 50	 60	 90	 0	 0	 1	-30	 30;
	 8	 280	 0.03	 0.12247	 0	 50	 60	 90	 0	 0	 1	-30	 30;
	 9	 42	 0.02642	 0.08647	 0	 50	 60	 90	 0	 0	 1	-30	 30;
	 9	 152	 0.01326	 0.04005	 0	 50	 60	 90	 0	 0	 1	-30	 30;
	 10	 56	 0.03	 0.11553	 0	 48.55	 58.26	 87.39	 0	 0	 1	-30	 30;
	 10	 178	 0.02124	 0.0691	 0	 88.9	 106.68	 133.35	 0	 0	 1	-30	 30;
	 10	 220	 0.03	 0.12402	 0	 95.47	 114.56	 143.2	 0	 0	 1	-30	 30;
	 11	 80	 0.01755	 0.05612	 0	 50	 60	 90	 0	 0	 1	-30	 30;
	 11	 258	 0.01789	 0.05496	 0	 43.7	 52.44	 65.55	 0	 0	 1	-30	 30;
	 12	 142	 0.02739	 0.05492	 0	 95.12	 114.14	 142.68	 0	 0	 1	-30	 30;
	 13	 205	 0.00046	 0.00142	 0	 76.63	 91.96	 114.95	 0	 0	 1	-30	 30;
	 13	 465	 0.00092	 0.00236	 0	 58.55	 70.26	 87.83	 0	 0	 1	-30	 30;
	 14	 313	 0.03	 0.12321	 0	 50	 60	 90	 0	 0	 1	-30	 30;
	 14	 348	 0.02989	 0.10536	 0	 56.6	 67.92	 84.9	 0	 0	 1	-30	 30;
	 15	 67	 0.00511	 0.02949	 0	 137	 150.7	 164.4	 0	 0	 1	-30	 30;
	 15	 131	 0.00428	 0.02247	 0	 96.9	 116.28	 145.35	 0	 0	 1	-30	 30;
	 15	 256	 0.01312	 0.07442	 0	 135.2	 162.23	 243.35	 0	 0	 1	-30	 30;
	 15	 422	 0.00546	 0.04726	 0	 58.04	 69.64	 104.47	 0	 0	 1	-30	 30;
	 15	 422	 0.00537	 0.04394	 0	 62.37	 74.85	 112.27	 0	 0	 1	-30	 30;
...